data_CuMOF-noprous-2cavity_40Mixed
_audit_creation_date              2019-03-06
_audit_creation_method            'Materials Studio'
_symmetry_space_group_name_H-M    'P1'
_symmetry_Int_Tables_number       1
_symmetry_cell_setting            triclinic
loop_
_symmetry_equiv_pos_as_xyz
  x,y,z
_cell_length_a                    60.0000
_cell_length_b                    50.0000
_cell_length_c                    50.0000
_cell_angle_alpha                 90.0000
_cell_angle_beta                  90.0000
_cell_angle_gamma                 90.0000
loop_
_atom_site_label
_atom_site_type_symbol
_atom_site_fract_x
_atom_site_fract_y
_atom_site_fract_z
_atom_site_U_iso_or_equiv
_atom_site_adp_type
_atom_site_occupancy
F1     F     0.38192   0.40174   0.38608   0.00000  Uiso   1.00
F2     F     0.65073   0.48816   0.36465   0.00000  Uiso   1.00
F3     F     0.48041   0.43339   0.43002   0.00000  Uiso   1.00
F4     F     0.52596   0.40180   0.37540   0.00000  Uiso   1.00
F5     F     0.49837   0.43038   0.37505   0.00000  Uiso   1.00
C6     C     0.55947   0.46849   0.33970   0.00000  Uiso   1.00
N7     N     0.55256   0.45735   0.36384   0.00000  Uiso   1.00
N8     N     0.52671   0.44650   0.33227   0.00000  Uiso   1.00
F9     F     0.52569   0.43534   0.40367   0.00000  Uiso   1.00
C10    C     0.52087   0.42828   0.37808   0.00000  Uiso   1.00
C11    C     0.53339   0.44472   0.35794   0.00000  Uiso   1.00
C12    C     0.54323   0.46171   0.31982   0.00000  Uiso   1.00
C13    C     0.57846   0.48375   0.33418   0.00000  Uiso   1.00
H14    H     0.59076   0.48865   0.34952   0.00000  Uiso   1.00
F15    F     0.62448   0.43348   0.41936   0.00000  Uiso   1.00
F16    F     0.63656   0.47475   0.41987   0.00000  Uiso   1.00
N17    N     0.60527   0.47183   0.46254   0.00000  Uiso   1.00
C18    C     0.60024   0.46624   0.43689   0.00000  Uiso   1.00
C19    C     0.58462   0.47508   0.47500   0.00000  Uiso   1.00
C20    C     0.54493   0.47293   0.46064   0.00000  Uiso   1.00
H21    H     0.53225   0.46975   0.44531   0.00000  Uiso   1.00
N22    N     0.57837   0.46562   0.43100   0.00000  Uiso   1.00
F23    F     0.61083   0.46284   0.39116   0.00000  Uiso   1.00
C24    C     0.61793   0.45950   0.41675   0.00000  Uiso   1.00
C25    C     0.56774   0.47113   0.45513   0.00000  Uiso   1.00
Cu26   Cu    0.56547   0.46143   0.39742   0.00000  Uiso   1.00
F27    F     0.74923   0.51982   0.40859   0.00000  Uiso   1.00
C28    C     0.40119   0.47009   0.30399   0.00000  Uiso   1.00
H29    H     0.38889   0.46521   0.28865   0.00000  Uiso   1.00
F30    F     0.36265   0.48804   0.38604   0.00000  Uiso   1.00
F31    F     0.35432   0.43032   0.38572   0.00000  Uiso   1.00
C32    C     0.41544   0.46841   0.35039   0.00000  Uiso   1.00
N33    N     0.40852   0.45727   0.37453   0.00000  Uiso   1.00
N34    N     0.38266   0.44647   0.34297   0.00000  Uiso   1.00
F35    F     0.38164   0.43528   0.41436   0.00000  Uiso   1.00
C36    C     0.37682   0.42822   0.38877   0.00000  Uiso   1.00
C37    C     0.38934   0.44467   0.36863   0.00000  Uiso   1.00
C38    C     0.39918   0.46168   0.33052   0.00000  Uiso   1.00
C39    C     0.40089   0.47286   0.47134   0.00000  Uiso   1.00
H40    H     0.38820   0.46965   0.45602   0.00000  Uiso   1.00
F41    F     0.23788   0.40168   0.39680   0.00000  Uiso   1.00
F42    F     0.21029   0.43026   0.39644   0.00000  Uiso   1.00
C43    C     0.27139   0.46837   0.36110   0.00000  Uiso   1.00
N44    N     0.26448   0.45723   0.38523   0.00000  Uiso   1.00
N45    N     0.23863   0.44638   0.35367   0.00000  Uiso   1.00
F46    F     0.23761   0.43522   0.42507   0.00000  Uiso   1.00
C47    C     0.23279   0.42816   0.39948   0.00000  Uiso   1.00
C48    C     0.24530   0.44460   0.37933   0.00000  Uiso   1.00
C49    C     0.25515   0.46159   0.34121   0.00000  Uiso   1.00
C50    C     0.29038   0.48363   0.35558   0.00000  Uiso   1.00
H51    H     0.30267   0.48853   0.37092   0.00000  Uiso   1.00
F52    F     0.33639   0.43336   0.44075   0.00000  Uiso   1.00
F53    F     0.34848   0.47463   0.44126   0.00000  Uiso   1.00
N54    N     0.31719   0.47171   0.48394   0.00000  Uiso   1.00
C55    C     0.31215   0.46612   0.45829   0.00000  Uiso   1.00
C56    C     0.29654   0.47495   0.49639   0.00000  Uiso   1.00
C57    C     0.25685   0.47281   0.48204   0.00000  Uiso   1.00
H58    H     0.24417   0.46963   0.46670   0.00000  Uiso   1.00
N59    N     0.29028   0.46550   0.45239   0.00000  Uiso   1.00
F60    F     0.32275   0.46272   0.41256   0.00000  Uiso   1.00
C61    C     0.32984   0.45938   0.43814   0.00000  Uiso   1.00
C62    C     0.27966   0.47101   0.47652   0.00000  Uiso   1.00
Cu63   Cu    0.27739   0.46131   0.41881   0.00000  Uiso   1.00
N64    N     0.42709   0.49649   0.27434   0.00000  Uiso   1.00
N65    N     0.45301   0.50720   0.30587   0.00000  Uiso   1.00
F66    F     0.48133   0.52354   0.26332   0.00000  Uiso   1.00
F67    F     0.45426   0.51803   0.23447   0.00000  Uiso   1.00
C68    C     0.45885   0.52540   0.26004   0.00000  Uiso   1.00
C69    C     0.44632   0.50903   0.28022   0.00000  Uiso   1.00
C70    C     0.42018   0.48535   0.29847   0.00000  Uiso   1.00
C71    C     0.43645   0.49205   0.31834   0.00000  Uiso   1.00
C72    C     0.67000   0.55651   0.28256   0.00000  Uiso   1.00
H73    H     0.65770   0.55164   0.26722   0.00000  Uiso   1.00
F74    F     0.62314   0.51675   0.36429   0.00000  Uiso   1.00
C75    C     0.68425   0.55483   0.32897   0.00000  Uiso   1.00
N76    N     0.67733   0.54369   0.35310   0.00000  Uiso   1.00
N77    N     0.65147   0.53289   0.32154   0.00000  Uiso   1.00
F78    F     0.65045   0.52171   0.39293   0.00000  Uiso   1.00
C79    C     0.64563   0.51464   0.36734   0.00000  Uiso   1.00
C80    C     0.65815   0.53109   0.34720   0.00000  Uiso   1.00
C81    C     0.66799   0.54810   0.30909   0.00000  Uiso   1.00
C82    C     0.43444   0.48365   0.34487   0.00000  Uiso   1.00
H83    H     0.44675   0.48852   0.36020   0.00000  Uiso   1.00
C84    C     0.66970   0.55928   0.44992   0.00000  Uiso   1.00
H85    H     0.65702   0.55607   0.43459   0.00000  Uiso   1.00
N86    N     0.43432   0.46553   0.44170   0.00000  Uiso   1.00
N87    N     0.46123   0.47178   0.47324   0.00000  Uiso   1.00
F88    F     0.46114   0.51969   0.42999   0.00000  Uiso   1.00
F89    F     0.49252   0.47465   0.43055   0.00000  Uiso   1.00
C90    C     0.45619   0.46616   0.44759   0.00000  Uiso   1.00
C91    C     0.42370   0.47105   0.46583   0.00000  Uiso   1.00
C92    C     0.44058   0.47502   0.48569   0.00000  Uiso   1.00
F93    F     0.46678   0.46278   0.40186   0.00000  Uiso   1.00
C94    C     0.47387   0.45942   0.42744   0.00000  Uiso   1.00
N95    N     0.59703   0.50730   0.29518   0.00000  Uiso   1.00
C96    C     0.58048   0.49214   0.30765   0.00000  Uiso   1.00
C97    C     0.54524   0.47012   0.29329   0.00000  Uiso   1.00
C98    C     0.59035   0.50910   0.26952   0.00000  Uiso   1.00
H99    H     0.53296   0.46521   0.27794   0.00000  Uiso   1.00
N100   N     0.57114   0.49654   0.26364   0.00000  Uiso   1.00
F101   F     0.59829   0.51813   0.22378   0.00000  Uiso   1.00
C102   C     0.60288   0.52548   0.24935   0.00000  Uiso   1.00
C103   C     0.56422   0.48540   0.28777   0.00000  Uiso   1.00
F104   F     0.59759   0.55194   0.25171   0.00000  Uiso   1.00
F105   F     0.62537   0.52360   0.25263   0.00000  Uiso   1.00
F106   F     0.50669   0.48810   0.37537   0.00000  Uiso   1.00
F107   F     0.47911   0.51668   0.37502   0.00000  Uiso   1.00
C108   C     0.54020   0.55479   0.33967   0.00000  Uiso   1.00
N109   N     0.53329   0.54366   0.36380   0.00000  Uiso   1.00
N110   N     0.50745   0.53280   0.33224   0.00000  Uiso   1.00
F111   F     0.50642   0.52164   0.40364   0.00000  Uiso   1.00
C112   C     0.50160   0.51458   0.37805   0.00000  Uiso   1.00
C113   C     0.51412   0.53102   0.35791   0.00000  Uiso   1.00
C114   C     0.52396   0.54802   0.31979   0.00000  Uiso   1.00
C115   C     0.55919   0.57005   0.33415   0.00000  Uiso   1.00
H116   H     0.57149   0.57495   0.34949   0.00000  Uiso   1.00
F117   F     0.60521   0.51978   0.41933   0.00000  Uiso   1.00
F118   F     0.61729   0.56105   0.41984   0.00000  Uiso   1.00
N119   N     0.58600   0.55814   0.46251   0.00000  Uiso   1.00
C120   C     0.58097   0.55254   0.43686   0.00000  Uiso   1.00
C121   C     0.56535   0.56138   0.47496   0.00000  Uiso   1.00
C122   C     0.52566   0.55923   0.46061   0.00000  Uiso   1.00
H123   H     0.51298   0.55605   0.44527   0.00000  Uiso   1.00
N124   N     0.55910   0.55192   0.43097   0.00000  Uiso   1.00
F125   F     0.59156   0.54914   0.39113   0.00000  Uiso   1.00
C126   C     0.59866   0.54580   0.41672   0.00000  Uiso   1.00
C127   C     0.54847   0.55743   0.45509   0.00000  Uiso   1.00
Cu128  Cu    0.42143   0.46133   0.40811   0.00000  Uiso   1.00
Cu129  Cu    0.54620   0.54773   0.39738   0.00000  Uiso   1.00
Cu130  Cu    0.48022   0.52000   0.31907   0.00000  Uiso   1.00
Cu131  Cu    0.62425   0.52009   0.30838   0.00000  Uiso   1.00
N132   N     0.69591   0.58291   0.25291   0.00000  Uiso   1.00
N133   N     0.72182   0.59362   0.28445   0.00000  Uiso   1.00
F134   F     0.75015   0.60996   0.24189   0.00000  Uiso   1.00
F135   F     0.72307   0.60445   0.21304   0.00000  Uiso   1.00
C136   C     0.72766   0.61183   0.23861   0.00000  Uiso   1.00
C137   C     0.71513   0.59545   0.25879   0.00000  Uiso   1.00
C138   C     0.68899   0.57178   0.27705   0.00000  Uiso   1.00
C139   C     0.70527   0.57847   0.29691   0.00000  Uiso   1.00
C140   C     0.70325   0.57008   0.32345   0.00000  Uiso   1.00
H141   H     0.71556   0.57495   0.33878   0.00000  Uiso   1.00
N142   N     0.70313   0.55195   0.42027   0.00000  Uiso   1.00
N143   N     0.73004   0.55820   0.45181   0.00000  Uiso   1.00
F144   F     0.76133   0.56108   0.40912   0.00000  Uiso   1.00
C145   C     0.72500   0.55258   0.42616   0.00000  Uiso   1.00
C146   C     0.69251   0.55748   0.44440   0.00000  Uiso   1.00
C147   C     0.70939   0.56145   0.46426   0.00000  Uiso   1.00
F148   F     0.73559   0.54920   0.38043   0.00000  Uiso   1.00
C149   C     0.74269   0.54584   0.40601   0.00000  Uiso   1.00
Cu150  Cu    0.69025   0.54775   0.38669   0.00000  Uiso   1.00
C151   C     0.38192   0.55639   0.30396   0.00000  Uiso   1.00
H152   H     0.36962   0.55151   0.28862   0.00000  Uiso   1.00
F153   F     0.33505   0.51663   0.38569   0.00000  Uiso   1.00
C154   C     0.39617   0.55471   0.35036   0.00000  Uiso   1.00
N155   N     0.38925   0.54357   0.37449   0.00000  Uiso   1.00
N156   N     0.36339   0.53277   0.34294   0.00000  Uiso   1.00
F157   F     0.36237   0.52158   0.41432   0.00000  Uiso   1.00
C158   C     0.35755   0.51452   0.38873   0.00000  Uiso   1.00
C159   C     0.37007   0.53097   0.36859   0.00000  Uiso   1.00
C160   C     0.37991   0.54798   0.33049   0.00000  Uiso   1.00
C161   C     0.38162   0.55916   0.47131   0.00000  Uiso   1.00
H162   H     0.36893   0.55595   0.45598   0.00000  Uiso   1.00
N163   N     0.30895   0.50718   0.31658   0.00000  Uiso   1.00
C164   C     0.29240   0.49202   0.32904   0.00000  Uiso   1.00
C165   C     0.25716   0.47000   0.31468   0.00000  Uiso   1.00
C166   C     0.30226   0.50898   0.29092   0.00000  Uiso   1.00
H167   H     0.24488   0.46509   0.29934   0.00000  Uiso   1.00
N168   N     0.28306   0.49642   0.28503   0.00000  Uiso   1.00
F169   F     0.31020   0.51801   0.24517   0.00000  Uiso   1.00
C170   C     0.31480   0.52536   0.27074   0.00000  Uiso   1.00
C171   C     0.27614   0.48528   0.30917   0.00000  Uiso   1.00
F172   F     0.30951   0.55182   0.27311   0.00000  Uiso   1.00
F173   F     0.33728   0.52348   0.27403   0.00000  Uiso   1.00
Cu174  Cu    0.33616   0.51997   0.32977   0.00000  Uiso   1.00
N175   N     0.40783   0.58279   0.27431   0.00000  Uiso   1.00
N176   N     0.43374   0.59350   0.30584   0.00000  Uiso   1.00
F177   F     0.45355   0.55186   0.26238   0.00000  Uiso   1.00
F178   F     0.46206   0.60984   0.26329   0.00000  Uiso   1.00
F179   F     0.43499   0.60433   0.23444   0.00000  Uiso   1.00
C180   C     0.43958   0.61171   0.26000   0.00000  Uiso   1.00
C181   C     0.42705   0.59533   0.28019   0.00000  Uiso   1.00
C182   C     0.40091   0.57165   0.29844   0.00000  Uiso   1.00
C183   C     0.41718   0.57835   0.31830   0.00000  Uiso   1.00
C184   C     0.41517   0.56996   0.34484   0.00000  Uiso   1.00
H185   H     0.42748   0.57482   0.36017   0.00000  Uiso   1.00
N186   N     0.41505   0.55183   0.44167   0.00000  Uiso   1.00
N187   N     0.44196   0.55808   0.47320   0.00000  Uiso   1.00
F188   F     0.47325   0.56096   0.43052   0.00000  Uiso   1.00
C189   C     0.43692   0.55246   0.44756   0.00000  Uiso   1.00
C190   C     0.40443   0.55736   0.46579   0.00000  Uiso   1.00
C191   C     0.42131   0.56133   0.48566   0.00000  Uiso   1.00
F192   F     0.44751   0.54908   0.40182   0.00000  Uiso   1.00
C193   C     0.45460   0.54572   0.42740   0.00000  Uiso   1.00
N194   N     0.57776   0.59360   0.29515   0.00000  Uiso   1.00
C195   C     0.56121   0.57844   0.30761   0.00000  Uiso   1.00
C196   C     0.52597   0.55642   0.29325   0.00000  Uiso   1.00
C197   C     0.57108   0.59540   0.26949   0.00000  Uiso   1.00
H198   H     0.51369   0.55151   0.27791   0.00000  Uiso   1.00
N199   N     0.55187   0.58284   0.26361   0.00000  Uiso   1.00
F200   F     0.57902   0.60443   0.22374   0.00000  Uiso   1.00
C201   C     0.58361   0.61179   0.24931   0.00000  Uiso   1.00
C202   C     0.54495   0.57170   0.28774   0.00000  Uiso   1.00
F203   F     0.57832   0.63824   0.25168   0.00000  Uiso   1.00
F204   F     0.60610   0.60990   0.25260   0.00000  Uiso   1.00
Cu205  Cu    0.40216   0.54763   0.40808   0.00000  Uiso   1.00
F206   F     0.72236   0.63828   0.24095   0.00000  Uiso   1.00
F207   F     0.43428   0.63816   0.26234   0.00000  Uiso   1.00
F208   F     0.38245   0.40204   0.72080   0.00000  Uiso   1.00
F209   F     0.65126   0.48846   0.69937   0.00000  Uiso   1.00
F210   F     0.52649   0.40210   0.71012   0.00000  Uiso   1.00
F211   F     0.49891   0.43068   0.70977   0.00000  Uiso   1.00
C212   C     0.56000   0.46879   0.67442   0.00000  Uiso   1.00
N213   N     0.55309   0.45765   0.69856   0.00000  Uiso   1.00
N214   N     0.52725   0.44680   0.66699   0.00000  Uiso   1.00
F215   F     0.52622   0.43564   0.73839   0.00000  Uiso   1.00
C216   C     0.52140   0.42858   0.71280   0.00000  Uiso   1.00
C217   C     0.53392   0.44502   0.69266   0.00000  Uiso   1.00
C218   C     0.54376   0.46201   0.65454   0.00000  Uiso   1.00
C219   C     0.57899   0.48405   0.66890   0.00000  Uiso   1.00
H220   H     0.59129   0.48895   0.68424   0.00000  Uiso   1.00
C221   C     0.40172   0.47039   0.63871   0.00000  Uiso   1.00
H222   H     0.38942   0.46551   0.62337   0.00000  Uiso   1.00
N223   N     0.40189   0.48850   0.54185   0.00000  Uiso   1.00
N224   N     0.37499   0.48217   0.51032   0.00000  Uiso   1.00
F225   F     0.36939   0.49089   0.58171   0.00000  Uiso   1.00
C226   C     0.36234   0.49449   0.55614   0.00000  Uiso   1.00
C227   C     0.38002   0.48781   0.53597   0.00000  Uiso   1.00
C228   C     0.41252   0.48297   0.51773   0.00000  Uiso   1.00
C229   C     0.39564   0.47897   0.49787   0.00000  Uiso   1.00
F230   F     0.34365   0.47937   0.55286   0.00000  Uiso   1.00
F231   F     0.36318   0.48834   0.72076   0.00000  Uiso   1.00
F232   F     0.35485   0.43062   0.72044   0.00000  Uiso   1.00
C233   C     0.41597   0.46871   0.68511   0.00000  Uiso   1.00
N234   N     0.40905   0.45757   0.70925   0.00000  Uiso   1.00
N235   N     0.38319   0.44677   0.67769   0.00000  Uiso   1.00
F236   F     0.38217   0.43558   0.74907   0.00000  Uiso   1.00
C237   C     0.37735   0.42852   0.72349   0.00000  Uiso   1.00
C238   C     0.38987   0.44497   0.70335   0.00000  Uiso   1.00
C239   C     0.39971   0.46197   0.66524   0.00000  Uiso   1.00
F240   F     0.23841   0.40197   0.73152   0.00000  Uiso   1.00
F241   F     0.21082   0.43056   0.73116   0.00000  Uiso   1.00
C242   C     0.27192   0.46866   0.69581   0.00000  Uiso   1.00
N243   N     0.26501   0.45753   0.71995   0.00000  Uiso   1.00
N244   N     0.23916   0.44667   0.68839   0.00000  Uiso   1.00
F245   F     0.23814   0.43552   0.75979   0.00000  Uiso   1.00
C246   C     0.23332   0.42845   0.73420   0.00000  Uiso   1.00
C247   C     0.24584   0.44490   0.71405   0.00000  Uiso   1.00
C248   C     0.25568   0.46189   0.67593   0.00000  Uiso   1.00
C249   C     0.29091   0.48393   0.69030   0.00000  Uiso   1.00
H250   H     0.30321   0.48883   0.70564   0.00000  Uiso   1.00
Cu251  Cu    0.34609   0.47694   0.49712   0.00000  Uiso   1.00
N252   N     0.42763   0.49679   0.60906   0.00000  Uiso   1.00
N253   N     0.45354   0.50750   0.64059   0.00000  Uiso   1.00
F254   F     0.48186   0.52383   0.59804   0.00000  Uiso   1.00
F255   F     0.45479   0.51833   0.56919   0.00000  Uiso   1.00
C256   C     0.45938   0.52570   0.59476   0.00000  Uiso   1.00
C257   C     0.44685   0.50933   0.61494   0.00000  Uiso   1.00
C258   C     0.42071   0.48565   0.63319   0.00000  Uiso   1.00
C259   C     0.43698   0.49235   0.65306   0.00000  Uiso   1.00
C260   C     0.67053   0.55681   0.61728   0.00000  Uiso   1.00
H261   H     0.65823   0.55193   0.60194   0.00000  Uiso   1.00
N262   N     0.67070   0.57492   0.52042   0.00000  Uiso   1.00
N263   N     0.64380   0.56859   0.48890   0.00000  Uiso   1.00
F264   F     0.63820   0.57732   0.56028   0.00000  Uiso   1.00
C265   C     0.63115   0.58092   0.53471   0.00000  Uiso   1.00
C266   C     0.64884   0.57423   0.51454   0.00000  Uiso   1.00
C267   C     0.68134   0.56939   0.49630   0.00000  Uiso   1.00
C268   C     0.66445   0.56539   0.47644   0.00000  Uiso   1.00
C269   C     0.43533   0.48115   0.51221   0.00000  Uiso   1.00
H270   H     0.44801   0.48434   0.52754   0.00000  Uiso   1.00
F271   F     0.61246   0.56579   0.53143   0.00000  Uiso   1.00
F272   F     0.62367   0.51705   0.69901   0.00000  Uiso   1.00
C273   C     0.68478   0.55513   0.66369   0.00000  Uiso   1.00
N274   N     0.67786   0.54399   0.68782   0.00000  Uiso   1.00
N275   N     0.65200   0.53319   0.65626   0.00000  Uiso   1.00
F276   F     0.65098   0.52200   0.72765   0.00000  Uiso   1.00
C277   C     0.64616   0.51494   0.70206   0.00000  Uiso   1.00
C278   C     0.65868   0.53139   0.68192   0.00000  Uiso   1.00
C279   C     0.66852   0.54840   0.64381   0.00000  Uiso   1.00
C280   C     0.43497   0.48395   0.67959   0.00000  Uiso   1.00
H281   H     0.44728   0.48882   0.69492   0.00000  Uiso   1.00
N282   N     0.59756   0.50760   0.62990   0.00000  Uiso   1.00
C283   C     0.58101   0.49244   0.64236   0.00000  Uiso   1.00
C284   C     0.54577   0.47041   0.62800   0.00000  Uiso   1.00
C285   C     0.59088   0.50940   0.60424   0.00000  Uiso   1.00
H286   H     0.53349   0.46551   0.61266   0.00000  Uiso   1.00
N287   N     0.57167   0.49684   0.59836   0.00000  Uiso   1.00
F288   F     0.59882   0.51843   0.55850   0.00000  Uiso   1.00
C289   C     0.60341   0.52578   0.58407   0.00000  Uiso   1.00
C290   C     0.56475   0.48570   0.62249   0.00000  Uiso   1.00
F291   F     0.59812   0.55224   0.58643   0.00000  Uiso   1.00
F292   F     0.62590   0.52390   0.58735   0.00000  Uiso   1.00
N293   N     0.54593   0.48851   0.53116   0.00000  Uiso   1.00
N294   N     0.51903   0.48222   0.49963   0.00000  Uiso   1.00
F295   F     0.51343   0.49094   0.57102   0.00000  Uiso   1.00
C296   C     0.50638   0.49452   0.54545   0.00000  Uiso   1.00
C297   C     0.52406   0.48783   0.52528   0.00000  Uiso   1.00
C298   C     0.55656   0.48299   0.50703   0.00000  Uiso   1.00
C299   C     0.53968   0.47902   0.48717   0.00000  Uiso   1.00
C300   C     0.57937   0.48118   0.50152   0.00000  Uiso   1.00
H301   H     0.59205   0.48435   0.51686   0.00000  Uiso   1.00
F302   F     0.49993   0.52059   0.54305   0.00000  Uiso   1.00
F303   F     0.48770   0.47938   0.54219   0.00000  Uiso   1.00
F304   F     0.50722   0.48840   0.71009   0.00000  Uiso   1.00
F305   F     0.47964   0.51698   0.70974   0.00000  Uiso   1.00
C306   C     0.54073   0.55509   0.67439   0.00000  Uiso   1.00
N307   N     0.53382   0.54395   0.69852   0.00000  Uiso   1.00
N308   N     0.50798   0.53310   0.66696   0.00000  Uiso   1.00
F309   F     0.50695   0.52194   0.73836   0.00000  Uiso   1.00
C310   C     0.50213   0.51488   0.71277   0.00000  Uiso   1.00
C311   C     0.51465   0.53132   0.69262   0.00000  Uiso   1.00
C312   C     0.52449   0.54831   0.65451   0.00000  Uiso   1.00
C313   C     0.55972   0.57035   0.66887   0.00000  Uiso   1.00
H314   H     0.57202   0.57525   0.68421   0.00000  Uiso   1.00
Cu315  Cu    0.41474   0.49273   0.57546   0.00000  Uiso   1.00
Cu316  Cu    0.55879   0.49274   0.56476   0.00000  Uiso   1.00
Cu317  Cu    0.48075   0.52029   0.65379   0.00000  Uiso   1.00
Cu318  Cu    0.61490   0.56336   0.47570   0.00000  Uiso   1.00
Cu319  Cu    0.62478   0.52039   0.64309   0.00000  Uiso   1.00
Cu320  Cu    0.49013   0.47700   0.48642   0.00000  Uiso   1.00
N321   N     0.69644   0.58321   0.58763   0.00000  Uiso   1.00
N322   N     0.72235   0.59392   0.61917   0.00000  Uiso   1.00
F323   F     0.75068   0.61026   0.57661   0.00000  Uiso   1.00
F324   F     0.72360   0.60475   0.54776   0.00000  Uiso   1.00
C325   C     0.72819   0.61213   0.57333   0.00000  Uiso   1.00
C326   C     0.71566   0.59575   0.59351   0.00000  Uiso   1.00
C327   C     0.68952   0.57207   0.61176   0.00000  Uiso   1.00
C328   C     0.70580   0.57877   0.63163   0.00000  Uiso   1.00
C329   C     0.70414   0.56757   0.49079   0.00000  Uiso   1.00
H330   H     0.71683   0.57076   0.50612   0.00000  Uiso   1.00
C331   C     0.70378   0.57038   0.65817   0.00000  Uiso   1.00
H332   H     0.71609   0.57524   0.67350   0.00000  Uiso   1.00
Cu333  Cu    0.68356   0.57915   0.55403   0.00000  Uiso   1.00
C334   C     0.38245   0.55669   0.63867   0.00000  Uiso   1.00
H335   H     0.37015   0.55181   0.62334   0.00000  Uiso   1.00
N336   N     0.38262   0.57480   0.54182   0.00000  Uiso   1.00
N337   N     0.35572   0.56847   0.51029   0.00000  Uiso   1.00
F338   F     0.35012   0.57720   0.58168   0.00000  Uiso   1.00
C339   C     0.34307   0.58080   0.55611   0.00000  Uiso   1.00
C340   C     0.36075   0.57411   0.53594   0.00000  Uiso   1.00
C341   C     0.39325   0.56927   0.51769   0.00000  Uiso   1.00
C342   C     0.37637   0.56527   0.49783   0.00000  Uiso   1.00
F343   F     0.35591   0.52058   0.55376   0.00000  Uiso   1.00
F344   F     0.32438   0.56567   0.55283   0.00000  Uiso   1.00
F345   F     0.33558   0.51692   0.72041   0.00000  Uiso   1.00
C346   C     0.39670   0.55501   0.68508   0.00000  Uiso   1.00
N347   N     0.38978   0.54387   0.70921   0.00000  Uiso   1.00
N348   N     0.36392   0.53307   0.67766   0.00000  Uiso   1.00
F349   F     0.36290   0.52188   0.74904   0.00000  Uiso   1.00
C350   C     0.35808   0.51482   0.72345   0.00000  Uiso   1.00
C351   C     0.37060   0.53127   0.70331   0.00000  Uiso   1.00
C352   C     0.38044   0.54828   0.66521   0.00000  Uiso   1.00
N353   N     0.30948   0.50748   0.65130   0.00000  Uiso   1.00
C354   C     0.29293   0.49232   0.66376   0.00000  Uiso   1.00
C355   C     0.25769   0.47029   0.64940   0.00000  Uiso   1.00
C356   C     0.30279   0.50928   0.62564   0.00000  Uiso   1.00
H357   H     0.24541   0.46539   0.63406   0.00000  Uiso   1.00
N358   N     0.28359   0.49671   0.61975   0.00000  Uiso   1.00
F359   F     0.31073   0.51830   0.57989   0.00000  Uiso   1.00
C360   C     0.31533   0.52566   0.60546   0.00000  Uiso   1.00
C361   C     0.27667   0.48558   0.64389   0.00000  Uiso   1.00
F362   F     0.31004   0.55212   0.60782   0.00000  Uiso   1.00
F363   F     0.33781   0.52377   0.60875   0.00000  Uiso   1.00
N364   N     0.25785   0.48839   0.55255   0.00000  Uiso   1.00
N365   N     0.23095   0.48210   0.52102   0.00000  Uiso   1.00
F366   F     0.22535   0.49082   0.59241   0.00000  Uiso   1.00
C367   C     0.21830   0.49440   0.56684   0.00000  Uiso   1.00
C368   C     0.23598   0.48771   0.54667   0.00000  Uiso   1.00
C369   C     0.26848   0.48287   0.52843   0.00000  Uiso   1.00
C370   C     0.25160   0.47890   0.50856   0.00000  Uiso   1.00
C371   C     0.29129   0.48106   0.52292   0.00000  Uiso   1.00
H372   H     0.30397   0.48423   0.53826   0.00000  Uiso   1.00
F373   F     0.21185   0.52047   0.56444   0.00000  Uiso   1.00
F374   F     0.19961   0.47926   0.56358   0.00000  Uiso   1.00
Cu375  Cu    0.27071   0.49262   0.58615   0.00000  Uiso   1.00
Cu376  Cu    0.33669   0.52027   0.66449   0.00000  Uiso   1.00
N377   N     0.40836   0.58309   0.60903   0.00000  Uiso   1.00
N378   N     0.43427   0.59380   0.64056   0.00000  Uiso   1.00
F379   F     0.45408   0.55215   0.59710   0.00000  Uiso   1.00
F380   F     0.46259   0.61014   0.59801   0.00000  Uiso   1.00
F381   F     0.43552   0.60463   0.56916   0.00000  Uiso   1.00
C382   C     0.44011   0.61200   0.59472   0.00000  Uiso   1.00
C383   C     0.42758   0.59563   0.61491   0.00000  Uiso   1.00
C384   C     0.40144   0.57195   0.63316   0.00000  Uiso   1.00
C385   C     0.41771   0.57865   0.65302   0.00000  Uiso   1.00
C386   C     0.41606   0.56745   0.51218   0.00000  Uiso   1.00
H387   H     0.42874   0.57064   0.52751   0.00000  Uiso   1.00
F388   F     0.62472   0.60700   0.53233   0.00000  Uiso   1.00
C389   C     0.41570   0.57026   0.67956   0.00000  Uiso   1.00
H390   H     0.42801   0.57512   0.69489   0.00000  Uiso   1.00
N391   N     0.57829   0.59390   0.62987   0.00000  Uiso   1.00
C392   C     0.56174   0.57874   0.64233   0.00000  Uiso   1.00
C393   C     0.52650   0.55672   0.62797   0.00000  Uiso   1.00
C394   C     0.57161   0.59570   0.60421   0.00000  Uiso   1.00
H395   H     0.51422   0.55181   0.61263   0.00000  Uiso   1.00
N396   N     0.55240   0.58314   0.59833   0.00000  Uiso   1.00
F397   F     0.57955   0.60473   0.55846   0.00000  Uiso   1.00
C398   C     0.58414   0.61208   0.58403   0.00000  Uiso   1.00
C399   C     0.54548   0.57200   0.62246   0.00000  Uiso   1.00
F400   F     0.57885   0.63854   0.58640   0.00000  Uiso   1.00
F401   F     0.60663   0.61020   0.58732   0.00000  Uiso   1.00
N402   N     0.52666   0.57481   0.53113   0.00000  Uiso   1.00
N403   N     0.49976   0.56852   0.49959   0.00000  Uiso   1.00
F404   F     0.49416   0.57725   0.57099   0.00000  Uiso   1.00
C405   C     0.48711   0.58082   0.54541   0.00000  Uiso   1.00
C406   C     0.50479   0.57413   0.52524   0.00000  Uiso   1.00
C407   C     0.53729   0.56930   0.50700   0.00000  Uiso   1.00
C408   C     0.52041   0.56532   0.48714   0.00000  Uiso   1.00
C409   C     0.56010   0.56748   0.50149   0.00000  Uiso   1.00
H410   H     0.57278   0.57065   0.51683   0.00000  Uiso   1.00
F411   F     0.48066   0.60690   0.54301   0.00000  Uiso   1.00
F412   F     0.46843   0.56568   0.54215   0.00000  Uiso   1.00
Cu413  Cu    0.39547   0.57903   0.57542   0.00000  Uiso   1.00
Cu414  Cu    0.53952   0.57905   0.56472   0.00000  Uiso   1.00
Cu415  Cu    0.47086   0.56331   0.48639   0.00000  Uiso   1.00
F416   F     0.72289   0.63858   0.57567   0.00000  Uiso   1.00
F417   F     0.33664   0.60688   0.55372   0.00000  Uiso   1.00
F418   F     0.43481   0.63846   0.59706   0.00000  Uiso   1.00
H419   H     0.62295   0.47286   0.46898   0.00000  Uiso   1.00
H420   H     0.33804   0.56739   0.50386   0.00000  Uiso   1.00
H421   H     0.73758   0.60330   0.29087   0.00000  Uiso   1.00
H422   H     0.44950   0.60318   0.31227   0.00000  Uiso   1.00
H423   H     0.59351   0.60331   0.30158   0.00000  Uiso   1.00
H424   H     0.51152   0.43703   0.66055   0.00000  Uiso   1.00
H425   H     0.36745   0.43703   0.67125   0.00000  Uiso   1.00
H426   H     0.22344   0.43691   0.68195   0.00000  Uiso   1.00
H427   H     0.73811   0.60360   0.62559   0.00000  Uiso   1.00
H428   H     0.45003   0.60348   0.64699   0.00000  Uiso   1.00
H429   H     0.59404   0.60361   0.63630   0.00000  Uiso   1.00
H430   H     0.51099   0.43673   0.32583   0.00000  Uiso   1.00
H431   H     0.36692   0.43673   0.33653   0.00000  Uiso   1.00
H432   H     0.22291   0.43661   0.34723   0.00000  Uiso   1.00
C433   C     0.09200   0.20756   0.08100   0.00000  Uiso   1.00
C434   C     0.10483   0.18089   0.08100   0.00000  Uiso   1.00
C435   C     0.13050   0.18089   0.08100   0.00000  Uiso   1.00
C436   C     0.14333   0.20756   0.08100   0.00000  Uiso   1.00
C437   C     0.13050   0.23424   0.08100   0.00000  Uiso   1.00
C438   C     0.10483   0.23424   0.08100   0.00000  Uiso   1.00
C439   C     0.13948   0.25820   0.09707   0.00000  Uiso   1.00
C440   C     0.16401   0.26726   0.09707   0.00000  Uiso   1.00
H441   H     0.07300   0.20756   0.08100   0.00000  Uiso   1.00
H442   H     0.09533   0.16114   0.08100   0.00000  Uiso   1.00
H443   H     0.14000   0.16114   0.08100   0.00000  Uiso   1.00
H444   H     0.16233   0.20756   0.08100   0.00000  Uiso   1.00
H445   H     0.09533   0.25398   0.08100   0.00000  Uiso   1.00
H446   H     0.12769   0.27052   0.11003   0.00000  Uiso   1.00
H447   H     0.17659   0.25697   0.08343   0.00000  Uiso   1.00
H448   H     0.16959   0.28426   0.11071   0.00000  Uiso   1.00
C449   C     0.10834   0.20993   0.24099   0.00000  Uiso   1.00
C450   C     0.12117   0.18325   0.24099   0.00000  Uiso   1.00
C451   C     0.14684   0.18325   0.24099   0.00000  Uiso   1.00
C452   C     0.15967   0.20993   0.24099   0.00000  Uiso   1.00
C453   C     0.14684   0.23660   0.24099   0.00000  Uiso   1.00
C454   C     0.12117   0.23660   0.24099   0.00000  Uiso   1.00
C455   C     0.15582   0.26057   0.25705   0.00000  Uiso   1.00
C456   C     0.18035   0.26963   0.25705   0.00000  Uiso   1.00
H457   H     0.08934   0.20993   0.24099   0.00000  Uiso   1.00
H458   H     0.11167   0.16351   0.24099   0.00000  Uiso   1.00
H459   H     0.15634   0.16351   0.24099   0.00000  Uiso   1.00
H460   H     0.17867   0.20993   0.24099   0.00000  Uiso   1.00
H461   H     0.11167   0.25635   0.24099   0.00000  Uiso   1.00
H462   H     0.14403   0.27289   0.27002   0.00000  Uiso   1.00
H463   H     0.19293   0.25934   0.24341   0.00000  Uiso   1.00
H464   H     0.18593   0.28662   0.27069   0.00000  Uiso   1.00
C465   C     0.12468   0.21229   0.40097   0.00000  Uiso   1.00
C466   C     0.13751   0.18562   0.40097   0.00000  Uiso   1.00
C467   C     0.16318   0.18562   0.40097   0.00000  Uiso   1.00
C468   C     0.17601   0.21229   0.40097   0.00000  Uiso   1.00
C469   C     0.16318   0.23897   0.40097   0.00000  Uiso   1.00
C470   C     0.13751   0.23897   0.40097   0.00000  Uiso   1.00
C471   C     0.17216   0.26294   0.41703   0.00000  Uiso   1.00
C472   C     0.19669   0.27199   0.41703   0.00000  Uiso   1.00
H473   H     0.10568   0.21229   0.40097   0.00000  Uiso   1.00
H474   H     0.12801   0.16587   0.40097   0.00000  Uiso   1.00
H475   H     0.17268   0.16587   0.40097   0.00000  Uiso   1.00
H476   H     0.19501   0.21229   0.40097   0.00000  Uiso   1.00
H477   H     0.12801   0.25871   0.40097   0.00000  Uiso   1.00
H478   H     0.16037   0.27525   0.43000   0.00000  Uiso   1.00
H479   H     0.20927   0.26170   0.40339   0.00000  Uiso   1.00
H480   H     0.20227   0.28899   0.43068   0.00000  Uiso   1.00
C481   C     0.14102   0.21466   0.56095   0.00000  Uiso   1.00
C482   C     0.15386   0.18799   0.56095   0.00000  Uiso   1.00
C483   C     0.17952   0.18799   0.56095   0.00000  Uiso   1.00
C484   C     0.19236   0.21466   0.56095   0.00000  Uiso   1.00
C485   C     0.17952   0.24133   0.56095   0.00000  Uiso   1.00
C486   C     0.15386   0.24133   0.56095   0.00000  Uiso   1.00
C487   C     0.18850   0.26530   0.57701   0.00000  Uiso   1.00
C488   C     0.21303   0.27436   0.57701   0.00000  Uiso   1.00
H489   H     0.12202   0.21466   0.56095   0.00000  Uiso   1.00
H490   H     0.14436   0.16824   0.56095   0.00000  Uiso   1.00
H491   H     0.18902   0.16824   0.56095   0.00000  Uiso   1.00
H492   H     0.21136   0.21466   0.56095   0.00000  Uiso   1.00
H493   H     0.14436   0.26108   0.56095   0.00000  Uiso   1.00
H494   H     0.17671   0.27762   0.58998   0.00000  Uiso   1.00
H495   H     0.22561   0.26407   0.56337   0.00000  Uiso   1.00
H496   H     0.21861   0.29136   0.59066   0.00000  Uiso   1.00
C497   C     0.15736   0.21703   0.72093   0.00000  Uiso   1.00
C498   C     0.17020   0.19035   0.72093   0.00000  Uiso   1.00
C499   C     0.19586   0.19035   0.72093   0.00000  Uiso   1.00
C500   C     0.20870   0.21703   0.72093   0.00000  Uiso   1.00
C501   C     0.19586   0.24370   0.72093   0.00000  Uiso   1.00
C502   C     0.17020   0.24370   0.72093   0.00000  Uiso   1.00
C503   C     0.20484   0.26767   0.73700   0.00000  Uiso   1.00
C504   C     0.22937   0.27673   0.73700   0.00000  Uiso   1.00
H505   H     0.13836   0.21703   0.72093   0.00000  Uiso   1.00
H506   H     0.16070   0.17061   0.72093   0.00000  Uiso   1.00
H507   H     0.20536   0.17061   0.72093   0.00000  Uiso   1.00
H508   H     0.22770   0.21703   0.72093   0.00000  Uiso   1.00
H509   H     0.16070   0.26344   0.72093   0.00000  Uiso   1.00
H510   H     0.19305   0.27998   0.74996   0.00000  Uiso   1.00
H511   H     0.24195   0.26644   0.72335   0.00000  Uiso   1.00
H512   H     0.23495   0.29372   0.75064   0.00000  Uiso   1.00
C513   C     0.34042   0.13611   0.07801   0.00000  Uiso   1.00
C514   C     0.35325   0.10943   0.07801   0.00000  Uiso   1.00
C515   C     0.37892   0.10943   0.07801   0.00000  Uiso   1.00
C516   C     0.39175   0.13611   0.07801   0.00000  Uiso   1.00
C517   C     0.37892   0.16278   0.07801   0.00000  Uiso   1.00
C518   C     0.35325   0.16278   0.07801   0.00000  Uiso   1.00
C519   C     0.38789   0.18675   0.09407   0.00000  Uiso   1.00
C520   C     0.41243   0.19581   0.09407   0.00000  Uiso   1.00
H521   H     0.32142   0.13611   0.07801   0.00000  Uiso   1.00
H522   H     0.34375   0.08969   0.07801   0.00000  Uiso   1.00
H523   H     0.38842   0.08969   0.07801   0.00000  Uiso   1.00
H524   H     0.41075   0.13611   0.07801   0.00000  Uiso   1.00
H525   H     0.34375   0.18253   0.07801   0.00000  Uiso   1.00
H526   H     0.37611   0.19907   0.10703   0.00000  Uiso   1.00
H527   H     0.42500   0.18552   0.08043   0.00000  Uiso   1.00
H528   H     0.41801   0.21280   0.10771   0.00000  Uiso   1.00
C529   C     0.35676   0.13847   0.23799   0.00000  Uiso   1.00
C530   C     0.36959   0.11180   0.23799   0.00000  Uiso   1.00
C531   C     0.39526   0.11180   0.23799   0.00000  Uiso   1.00
C532   C     0.40809   0.13847   0.23799   0.00000  Uiso   1.00
C533   C     0.39526   0.16515   0.23799   0.00000  Uiso   1.00
C534   C     0.36959   0.16515   0.23799   0.00000  Uiso   1.00
C535   C     0.40424   0.18912   0.25405   0.00000  Uiso   1.00
C536   C     0.42877   0.19817   0.25405   0.00000  Uiso   1.00
H537   H     0.33776   0.13847   0.23799   0.00000  Uiso   1.00
H538   H     0.36009   0.09205   0.23799   0.00000  Uiso   1.00
H539   H     0.40476   0.09205   0.23799   0.00000  Uiso   1.00
H540   H     0.42709   0.13847   0.23799   0.00000  Uiso   1.00
H541   H     0.36009   0.18489   0.23799   0.00000  Uiso   1.00
H542   H     0.39245   0.20143   0.26702   0.00000  Uiso   1.00
H543   H     0.44135   0.18788   0.24041   0.00000  Uiso   1.00
H544   H     0.43435   0.21517   0.26769   0.00000  Uiso   1.00
C545   C     0.37310   0.14084   0.39797   0.00000  Uiso   1.00
C546   C     0.38593   0.11416   0.39797   0.00000  Uiso   1.00
C547   C     0.41160   0.11416   0.39797   0.00000  Uiso   1.00
C548   C     0.42443   0.14084   0.39797   0.00000  Uiso   1.00
C549   C     0.41160   0.16751   0.39797   0.00000  Uiso   1.00
C550   C     0.38593   0.16751   0.39797   0.00000  Uiso   1.00
C551   C     0.42058   0.19148   0.41403   0.00000  Uiso   1.00
C552   C     0.44511   0.20054   0.41403   0.00000  Uiso   1.00
H553   H     0.35410   0.14084   0.39797   0.00000  Uiso   1.00
H554   H     0.37643   0.09442   0.39797   0.00000  Uiso   1.00
H555   H     0.42110   0.09442   0.39797   0.00000  Uiso   1.00
H556   H     0.44343   0.14084   0.39797   0.00000  Uiso   1.00
H557   H     0.37643   0.18726   0.39797   0.00000  Uiso   1.00
H558   H     0.40879   0.20380   0.42700   0.00000  Uiso   1.00
H559   H     0.45769   0.19025   0.40039   0.00000  Uiso   1.00
H560   H     0.45069   0.21753   0.42768   0.00000  Uiso   1.00
C561   C     0.38944   0.14320   0.55795   0.00000  Uiso   1.00
C562   C     0.40227   0.11653   0.55795   0.00000  Uiso   1.00
C563   C     0.42794   0.11653   0.55795   0.00000  Uiso   1.00
C564   C     0.44077   0.14320   0.55795   0.00000  Uiso   1.00
C565   C     0.42794   0.16988   0.55795   0.00000  Uiso   1.00
C566   C     0.40227   0.16988   0.55795   0.00000  Uiso   1.00
C567   C     0.43692   0.19385   0.57402   0.00000  Uiso   1.00
C568   C     0.46145   0.20290   0.57402   0.00000  Uiso   1.00
H569   H     0.37044   0.14320   0.55795   0.00000  Uiso   1.00
H570   H     0.39277   0.09679   0.55795   0.00000  Uiso   1.00
H571   H     0.43744   0.09679   0.55795   0.00000  Uiso   1.00
H572   H     0.45977   0.14320   0.55795   0.00000  Uiso   1.00
H573   H     0.39277   0.18962   0.55795   0.00000  Uiso   1.00
H574   H     0.42513   0.20616   0.58698   0.00000  Uiso   1.00
H575   H     0.47403   0.19261   0.56037   0.00000  Uiso   1.00
H576   H     0.46703   0.21990   0.58766   0.00000  Uiso   1.00
C577   C     0.40578   0.14557   0.71793   0.00000  Uiso   1.00
C578   C     0.41861   0.11890   0.71793   0.00000  Uiso   1.00
C579   C     0.44428   0.11890   0.71793   0.00000  Uiso   1.00
C580   C     0.45711   0.14557   0.71793   0.00000  Uiso   1.00
C581   C     0.44428   0.17224   0.71793   0.00000  Uiso   1.00
C582   C     0.41861   0.17224   0.71793   0.00000  Uiso   1.00
C583   C     0.45326   0.19621   0.73400   0.00000  Uiso   1.00
C584   C     0.47779   0.20527   0.73400   0.00000  Uiso   1.00
H585   H     0.38678   0.14557   0.71793   0.00000  Uiso   1.00
H586   H     0.40911   0.09915   0.71793   0.00000  Uiso   1.00
H587   H     0.45378   0.09915   0.71793   0.00000  Uiso   1.00
H588   H     0.47611   0.14557   0.71793   0.00000  Uiso   1.00
H589   H     0.40911   0.19199   0.71793   0.00000  Uiso   1.00
H590   H     0.44147   0.20853   0.74696   0.00000  Uiso   1.00
H591   H     0.49037   0.19498   0.72036   0.00000  Uiso   1.00
H592   H     0.48337   0.22227   0.74764   0.00000  Uiso   1.00
C593   C    -0.40201   0.14712   0.07994   0.00000  Uiso   1.00
C594   C    -0.39131   0.11913   0.07949   0.00000  Uiso   1.00
C595   C    -0.36577   0.11622   0.08041   0.00000  Uiso   1.00
C596   C    -0.35093   0.14130   0.08180   0.00000  Uiso   1.00
C597   C    -0.36162   0.16930   0.08225   0.00000  Uiso   1.00
C598   C    -0.38716   0.17221   0.08132   0.00000  Uiso   1.00
H599   H    -0.42091   0.14927   0.07926   0.00000  Uiso   1.00
H600   H    -0.40230   0.10056   0.07846   0.00000  Uiso   1.00
H601   H    -0.35786   0.09549   0.08008   0.00000  Uiso   1.00
H602   H    -0.33202   0.13915   0.08249   0.00000  Uiso   1.00
H603   H    -0.39508   0.19293   0.08164   0.00000  Uiso   1.00
H604   H    -0.35063   0.18787   0.08328   0.00000  Uiso   1.00
C605   C     0.61338   0.14432   0.25992   0.00000  Uiso   1.00
C606   C     0.62407   0.11633   0.25946   0.00000  Uiso   1.00
C607   C     0.64961   0.11342   0.26039   0.00000  Uiso   1.00
C608   C     0.66446   0.13851   0.26177   0.00000  Uiso   1.00
C609   C     0.65377   0.16650   0.26222   0.00000  Uiso   1.00
C610   C     0.62823   0.16941   0.26129   0.00000  Uiso   1.00
H611   H     0.59447   0.14648   0.25923   0.00000  Uiso   1.00
H612   H     0.61308   0.09776   0.25844   0.00000  Uiso   1.00
H613   H     0.65753   0.09270   0.26005   0.00000  Uiso   1.00
H614   H     0.68337   0.13635   0.26246   0.00000  Uiso   1.00
H615   H     0.62031   0.19013   0.26162   0.00000  Uiso   1.00
H616   H     0.66476   0.18507   0.26325   0.00000  Uiso   1.00
C617   C     0.62891   0.14184   0.41989   0.00000  Uiso   1.00
C618   C     0.63961   0.11384   0.41943   0.00000  Uiso   1.00
C619   C     0.66515   0.11093   0.42036   0.00000  Uiso   1.00
C620   C     0.67999   0.13602   0.42175   0.00000  Uiso   1.00
C621   C     0.66930   0.16401   0.42220   0.00000  Uiso   1.00
C622   C     0.64376   0.16692   0.42126   0.00000  Uiso   1.00
H623   H     0.61000   0.14399   0.41921   0.00000  Uiso   1.00
H624   H     0.62861   0.09527   0.41841   0.00000  Uiso   1.00
H625   H     0.67306   0.09021   0.42002   0.00000  Uiso   1.00
H626   H     0.69890   0.13387   0.42244   0.00000  Uiso   1.00
H627   H     0.63584   0.18765   0.42159   0.00000  Uiso   1.00
H628   H     0.68029   0.18259   0.42322   0.00000  Uiso   1.00
C629   C     0.64444   0.13935   0.57987   0.00000  Uiso   1.00
C630   C     0.65514   0.11136   0.57941   0.00000  Uiso   1.00
C631   C     0.68068   0.10845   0.58034   0.00000  Uiso   1.00
C632   C     0.69552   0.13353   0.58172   0.00000  Uiso   1.00
C633   C     0.68483   0.16153   0.58217   0.00000  Uiso   1.00
C634   C     0.65929   0.16444   0.58124   0.00000  Uiso   1.00
H635   H     0.62554   0.14150   0.57918   0.00000  Uiso   1.00
H636   H     0.64415   0.09279   0.57838   0.00000  Uiso   1.00
H637   H     0.68859   0.08772   0.58000   0.00000  Uiso   1.00
H638   H     0.71443   0.13138   0.58241   0.00000  Uiso   1.00
H639   H     0.65137   0.18516   0.58157   0.00000  Uiso   1.00
H640   H     0.69582   0.18010   0.58320   0.00000  Uiso   1.00
C641   C     1.62651   0.15241   0.72598   0.00000  Uiso   1.00
C642   C     1.63720   0.12442   0.72552   0.00000  Uiso   1.00
C643   C     1.66274   0.12151   0.72645   0.00000  Uiso   1.00
C644   C     1.67759   0.14660   0.72783   0.00000  Uiso   1.00
C645   C     1.66690   0.17459   0.72828   0.00000  Uiso   1.00
C646   C     1.64136   0.17750   0.72735   0.00000  Uiso   1.00
H647   H     1.60760   0.15457   0.72530   0.00000  Uiso   1.00
H648   H     1.62621   0.10585   0.72450   0.00000  Uiso   1.00
H649   H     1.67066   0.10079   0.72611   0.00000  Uiso   1.00
H650   H     1.69650   0.14445   0.72853   0.00000  Uiso   1.00
H651   H     1.63344   0.19822   0.72768   0.00000  Uiso   1.00
H652   H     1.67788   0.19316   0.72931   0.00000  Uiso   1.00
C653   C     0.83215   0.26462   0.26060   0.00000  Uiso   1.00
C654   C     0.84285   0.23662   0.26014   0.00000  Uiso   1.00
C655   C     0.86839   0.23372   0.26107   0.00000  Uiso   1.00
C656   C     0.88323   0.25880   0.26246   0.00000  Uiso   1.00
C657   C     0.87254   0.28680   0.26290   0.00000  Uiso   1.00
C658   C     0.84700   0.28971   0.26197   0.00000  Uiso   1.00
H659   H     0.81325   0.26677   0.25992   0.00000  Uiso   1.00
H660   H     0.83186   0.21805   0.25912   0.00000  Uiso   1.00
H661   H     0.87630   0.21299   0.26073   0.00000  Uiso   1.00
H662   H     0.90214   0.25665   0.26315   0.00000  Uiso   1.00
H663   H     0.83908   0.31043   0.26230   0.00000  Uiso   1.00
H664   H     0.88353   0.30537   0.26393   0.00000  Uiso   1.00
C665   C     0.84768   0.26213   0.42057   0.00000  Uiso   1.00
C666   C     0.85838   0.23414   0.42012   0.00000  Uiso   1.00
C667   C     0.88392   0.23123   0.42104   0.00000  Uiso   1.00
C668   C     0.89876   0.25632   0.42243   0.00000  Uiso   1.00
C669   C     0.88807   0.28431   0.42288   0.00000  Uiso   1.00
C670   C     0.86253   0.28722   0.42195   0.00000  Uiso   1.00
H671   H     0.82878   0.26428   0.41989   0.00000  Uiso   1.00
H672   H     0.84739   0.21557   0.41909   0.00000  Uiso   1.00
H673   H     0.89183   0.21050   0.42071   0.00000  Uiso   1.00
H674   H     0.91767   0.25416   0.42312   0.00000  Uiso   1.00
H675   H     0.85461   0.30794   0.42227   0.00000  Uiso   1.00
H676   H     0.89906   0.30288   0.42391   0.00000  Uiso   1.00
C677   C     0.86321   0.25964   0.58055   0.00000  Uiso   1.00
C678   C     0.87391   0.23165   0.58009   0.00000  Uiso   1.00
C679   C     0.89945   0.22874   0.58102   0.00000  Uiso   1.00
C680   C     0.91429   0.25383   0.58241   0.00000  Uiso   1.00
C681   C     0.90360   0.28182   0.58285   0.00000  Uiso   1.00
C682   C     0.87806   0.28473   0.58192   0.00000  Uiso   1.00
H683   H     0.84431   0.26180   0.57987   0.00000  Uiso   1.00
H684   H     0.86292   0.21308   0.57907   0.00000  Uiso   1.00
H685   H     0.90736   0.20802   0.58068   0.00000  Uiso   1.00
H686   H     0.93320   0.25168   0.58310   0.00000  Uiso   1.00
H687   H     0.87014   0.30545   0.58225   0.00000  Uiso   1.00
H688   H     0.91459   0.30039   0.58388   0.00000  Uiso   1.00
C689   C     0.84528   0.27271   0.72666   0.00000  Uiso   1.00
C690   C     0.85598   0.24472   0.72620   0.00000  Uiso   1.00
C691   C     0.88151   0.24181   0.72713   0.00000  Uiso   1.00
C692   C     0.89636   0.26689   0.72852   0.00000  Uiso   1.00
C693   C     0.88567   0.29489   0.72897   0.00000  Uiso   1.00
C694   C     0.86013   0.29780   0.72803   0.00000  Uiso   1.00
H695   H     0.82637   0.27486   0.72598   0.00000  Uiso   1.00
H696   H     0.84498   0.22615   0.72518   0.00000  Uiso   1.00
H697   H     0.88943   0.22108   0.72679   0.00000  Uiso   1.00
H698   H     0.91527   0.26474   0.72921   0.00000  Uiso   1.00
H699   H     0.85221   0.31852   0.72836   0.00000  Uiso   1.00
H700   H     0.89666   0.31346   0.72999   0.00000  Uiso   1.00
C701   C     0.81676   0.26742   0.08063   0.00000  Uiso   1.00
C702   C     0.82746   0.23942   0.08017   0.00000  Uiso   1.00
C703   C     0.85300   0.23651   0.08110   0.00000  Uiso   1.00
C704   C     0.86784   0.26160   0.08248   0.00000  Uiso   1.00
C705   C     0.85715   0.28959   0.08293   0.00000  Uiso   1.00
C706   C     0.83161   0.29250   0.08200   0.00000  Uiso   1.00
H707   H     0.79786   0.26957   0.07995   0.00000  Uiso   1.00
H708   H     0.81647   0.22085   0.07915   0.00000  Uiso   1.00
H709   H     0.86091   0.21579   0.08076   0.00000  Uiso   1.00
H710   H     0.88675   0.25945   0.08318   0.00000  Uiso   1.00
H711   H     0.82369   0.31323   0.08233   0.00000  Uiso   1.00
H712   H     0.86814   0.30817   0.08396   0.00000  Uiso   1.00
C713   C     0.08744   0.70499   0.07921   0.00000  Uiso   1.00
C714   C     0.09778   0.67712   0.07487   0.00000  Uiso   1.00
C715   C     0.12298   0.67292   0.07894   0.00000  Uiso   1.00
C716   C     0.13787   0.69662   0.08716   0.00000  Uiso   1.00
C717   C     0.12760   0.72459   0.09101   0.00000  Uiso   1.00
C718   C     0.10234   0.72869   0.08742   0.00000  Uiso   1.00
H719   H     0.06877   0.70806   0.07637   0.00000  Uiso   1.00
H720   H     0.08676   0.65959   0.06872   0.00000  Uiso   1.00
H721   H     0.13061   0.65226   0.07588   0.00000  Uiso   1.00
H722   H     0.15650   0.69348   0.09036   0.00000  Uiso   1.00
H723   H     0.09467   0.74927   0.09080   0.00000  Uiso   1.00
C724   C     0.14238   0.74811   0.09997   0.00000  Uiso   1.00
H725   H     0.14935   0.75875   0.08162   0.00000  Uiso   1.00
H726   H     0.15672   0.74023   0.11269   0.00000  Uiso   1.00
H727   H     0.13201   0.76275   0.11224   0.00000  Uiso   1.00
C728   C     0.10374   0.70667   0.23920   0.00000  Uiso   1.00
C729   C     0.11407   0.67880   0.23486   0.00000  Uiso   1.00
C730   C     0.13928   0.67460   0.23893   0.00000  Uiso   1.00
C731   C     0.15416   0.69831   0.24715   0.00000  Uiso   1.00
C732   C     0.14390   0.72627   0.25100   0.00000  Uiso   1.00
C733   C     0.11863   0.73037   0.24741   0.00000  Uiso   1.00
H734   H     0.08506   0.70974   0.23636   0.00000  Uiso   1.00
H735   H     0.10306   0.66128   0.22871   0.00000  Uiso   1.00
H736   H     0.14691   0.65395   0.23587   0.00000  Uiso   1.00
H737   H     0.17279   0.69517   0.25035   0.00000  Uiso   1.00
H738   H     0.11096   0.75095   0.25079   0.00000  Uiso   1.00
C739   C     0.15868   0.74979   0.25996   0.00000  Uiso   1.00
H740   H     0.16564   0.76043   0.24161   0.00000  Uiso   1.00
H741   H     0.17301   0.74191   0.27268   0.00000  Uiso   1.00
H742   H     0.14830   0.76444   0.27223   0.00000  Uiso   1.00
C743   C     0.12003   0.70835   0.39919   0.00000  Uiso   1.00
C744   C     0.13037   0.68049   0.39485   0.00000  Uiso   1.00
C745   C     0.15557   0.67628   0.39892   0.00000  Uiso   1.00
C746   C     0.17046   0.69999   0.40714   0.00000  Uiso   1.00
C747   C     0.16019   0.72795   0.41099   0.00000  Uiso   1.00
C748   C     0.13493   0.73205   0.40740   0.00000  Uiso   1.00
H749   H     0.10135   0.71142   0.39635   0.00000  Uiso   1.00
H750   H     0.11935   0.66296   0.38870   0.00000  Uiso   1.00
H751   H     0.16320   0.65563   0.39586   0.00000  Uiso   1.00
H752   H     0.18909   0.69685   0.41034   0.00000  Uiso   1.00
H753   H     0.12726   0.75264   0.41078   0.00000  Uiso   1.00
C754   C     0.17497   0.75148   0.41996   0.00000  Uiso   1.00
H755   H     0.18194   0.76211   0.40160   0.00000  Uiso   1.00
H756   H     0.18931   0.74359   0.43267   0.00000  Uiso   1.00
H757   H     0.16460   0.76612   0.43222   0.00000  Uiso   1.00
C758   C     0.13628   0.71024   0.57918   0.00000  Uiso   1.00
C759   C     0.14662   0.68238   0.57484   0.00000  Uiso   1.00
C760   C     0.17182   0.67818   0.57891   0.00000  Uiso   1.00
C761   C     0.18670   0.70188   0.58713   0.00000  Uiso   1.00
C762   C     0.17644   0.72985   0.59098   0.00000  Uiso   1.00
C763   C     0.15118   0.73394   0.58739   0.00000  Uiso   1.00
H764   H     0.11760   0.71331   0.57634   0.00000  Uiso   1.00
H765   H     0.13560   0.66485   0.56869   0.00000  Uiso   1.00
H766   H     0.17945   0.65752   0.57585   0.00000  Uiso   1.00
H767   H     0.20533   0.69874   0.59033   0.00000  Uiso   1.00
H768   H     0.14351   0.75453   0.59077   0.00000  Uiso   1.00
C769   C     0.19122   0.75337   0.59994   0.00000  Uiso   1.00
H770   H     0.19818   0.76400   0.58159   0.00000  Uiso   1.00
H771   H     0.20556   0.74549   0.61266   0.00000  Uiso   1.00
H772   H     0.18084   0.76801   0.61221   0.00000  Uiso   1.00
C773   C     0.15253   0.71213   0.75917   0.00000  Uiso   1.00
C774   C     0.16286   0.68427   0.75483   0.00000  Uiso   1.00
C775   C     0.18807   0.68007   0.75890   0.00000  Uiso   1.00
C776   C     0.20295   0.70377   0.76712   0.00000  Uiso   1.00
C777   C     0.19269   0.73174   0.77097   0.00000  Uiso   1.00
C778   C     0.16742   0.73583   0.76738   0.00000  Uiso   1.00
H779   H     0.13385   0.71521   0.75633   0.00000  Uiso   1.00
H780   H     0.15185   0.66674   0.74868   0.00000  Uiso   1.00
H781   H     0.19570   0.65941   0.75584   0.00000  Uiso   1.00
H782   H     0.22158   0.70063   0.77031   0.00000  Uiso   1.00
H783   H     0.15975   0.75642   0.77076   0.00000  Uiso   1.00
C784   C     0.20747   0.75526   0.77993   0.00000  Uiso   1.00
H785   H     0.21443   0.76589   0.76158   0.00000  Uiso   1.00
H786   H     0.22180   0.74738   0.79265   0.00000  Uiso   1.00
H787   H     0.19709   0.76990   0.79220   0.00000  Uiso   1.00
C788   C     0.33954   0.82765   0.07934   0.00000  Uiso   1.00
C789   C     0.34988   0.79979   0.07499   0.00000  Uiso   1.00
C790   C     0.37508   0.79558   0.07906   0.00000  Uiso   1.00
C791   C     0.38996   0.81929   0.08728   0.00000  Uiso   1.00
C792   C     0.37970   0.84725   0.09113   0.00000  Uiso   1.00
C793   C     0.35444   0.85135   0.08754   0.00000  Uiso   1.00
H794   H     0.32086   0.83072   0.07649   0.00000  Uiso   1.00
H795   H     0.33886   0.78226   0.06884   0.00000  Uiso   1.00
H796   H     0.38271   0.77493   0.07600   0.00000  Uiso   1.00
H797   H     0.40859   0.81615   0.09048   0.00000  Uiso   1.00
H798   H     0.34677   0.87194   0.09092   0.00000  Uiso   1.00
C799   C     0.39448   0.87078   0.10010   0.00000  Uiso   1.00
H800   H     0.40144   0.88141   0.08174   0.00000  Uiso   1.00
H801   H     0.40882   0.86289   0.11281   0.00000  Uiso   1.00
H802   H     0.38411   0.88542   0.11236   0.00000  Uiso   1.00
C803   C     0.35583   0.82933   0.23933   0.00000  Uiso   1.00
C804   C     0.36617   0.80147   0.23499   0.00000  Uiso   1.00
C805   C     0.39137   0.79727   0.23905   0.00000  Uiso   1.00
C806   C     0.40626   0.82097   0.24728   0.00000  Uiso   1.00
C807   C     0.39599   0.84894   0.25112   0.00000  Uiso   1.00
C808   C     0.37073   0.85303   0.24753   0.00000  Uiso   1.00
H809   H     0.33716   0.83240   0.23649   0.00000  Uiso   1.00
H810   H     0.35515   0.78394   0.22883   0.00000  Uiso   1.00
H811   H     0.39900   0.77661   0.23599   0.00000  Uiso   1.00
H812   H     0.42489   0.81783   0.25047   0.00000  Uiso   1.00
H813   H     0.36306   0.87362   0.25092   0.00000  Uiso   1.00
C814   C     0.41077   0.87246   0.26009   0.00000  Uiso   1.00
H815   H     0.41774   0.88309   0.24173   0.00000  Uiso   1.00
H816   H     0.42511   0.86458   0.27280   0.00000  Uiso   1.00
H817   H     0.40040   0.88710   0.27235   0.00000  Uiso   1.00
C818   C     0.37213   0.83101   0.39932   0.00000  Uiso   1.00
C819   C     0.38246   0.80315   0.39498   0.00000  Uiso   1.00
C820   C     0.40767   0.79895   0.39904   0.00000  Uiso   1.00
C821   C     0.42255   0.82265   0.40727   0.00000  Uiso   1.00
C822   C     0.41229   0.85062   0.41111   0.00000  Uiso   1.00
C823   C     0.38702   0.85471   0.40752   0.00000  Uiso   1.00
H824   H     0.35345   0.83409   0.39648   0.00000  Uiso   1.00
H825   H     0.37145   0.78562   0.38882   0.00000  Uiso   1.00
H826   H     0.41530   0.77829   0.39598   0.00000  Uiso   1.00
H827   H     0.44118   0.81951   0.41046   0.00000  Uiso   1.00
H828   H     0.37935   0.87530   0.41091   0.00000  Uiso   1.00
C829   C     0.42707   0.87414   0.42008   0.00000  Uiso   1.00
H830   H     0.43403   0.88477   0.40172   0.00000  Uiso   1.00
H831   H     0.44140   0.86626   0.43279   0.00000  Uiso   1.00
H832   H     0.41669   0.88878   0.43234   0.00000  Uiso   1.00
C833   C     0.38838   0.83291   0.57931   0.00000  Uiso   1.00
C834   C     0.39871   0.80504   0.57497   0.00000  Uiso   1.00
C835   C     0.42392   0.80084   0.57903   0.00000  Uiso   1.00
C836   C     0.43880   0.82454   0.58726   0.00000  Uiso   1.00
C837   C     0.42853   0.85251   0.59110   0.00000  Uiso   1.00
C838   C     0.40327   0.85661   0.58751   0.00000  Uiso   1.00
H839   H     0.36970   0.83598   0.57647   0.00000  Uiso   1.00
H840   H     0.38770   0.78751   0.56881   0.00000  Uiso   1.00
H841   H     0.43155   0.78018   0.57597   0.00000  Uiso   1.00
H842   H     0.45743   0.82140   0.59045   0.00000  Uiso   1.00
H843   H     0.39560   0.87719   0.59090   0.00000  Uiso   1.00
C844   C     0.44332   0.87603   0.60007   0.00000  Uiso   1.00
H845   H     0.45028   0.88667   0.58171   0.00000  Uiso   1.00
H846   H     0.45765   0.86815   0.61278   0.00000  Uiso   1.00
H847   H     0.43294   0.89067   0.61233   0.00000  Uiso   1.00
C848   C     0.40462   0.83480   0.75930   0.00000  Uiso   1.00
C849   C     0.41496   0.80693   0.75495   0.00000  Uiso   1.00
C850   C     0.44016   0.80273   0.75902   0.00000  Uiso   1.00
C851   C     0.45505   0.82644   0.76724   0.00000  Uiso   1.00
C852   C     0.44478   0.85440   0.77109   0.00000  Uiso   1.00
C853   C     0.41952   0.85850   0.76750   0.00000  Uiso   1.00
H854   H     0.38595   0.83787   0.75645   0.00000  Uiso   1.00
H855   H     0.40394   0.78941   0.74880   0.00000  Uiso   1.00
H856   H     0.44779   0.78208   0.75596   0.00000  Uiso   1.00
H857   H     0.47368   0.82330   0.77044   0.00000  Uiso   1.00
H858   H     0.41185   0.87908   0.77088   0.00000  Uiso   1.00
C859   C     0.45956   0.87792   0.78006   0.00000  Uiso   1.00
H860   H     0.46653   0.88856   0.76170   0.00000  Uiso   1.00
H861   H     0.47390   0.87004   0.79277   0.00000  Uiso   1.00
H862   H     0.44919   0.89257   0.79232   0.00000  Uiso   1.00
C863   C     0.58426   0.81456   0.07951   0.00000  Uiso   1.00
C864   C     0.59563   0.78726   0.07544   0.00000  Uiso   1.00
C865   C     0.62090   0.78436   0.08001   0.00000  Uiso   1.00
C866   C     0.63480   0.80878   0.08858   0.00000  Uiso   1.00
C867   C     0.62346   0.83614   0.09242   0.00000  Uiso   1.00
C868   C     0.59816   0.83898   0.08810   0.00000  Uiso   1.00
H869   H     0.56554   0.81669   0.07619   0.00000  Uiso   1.00
H870   H     0.58534   0.76918   0.06906   0.00000  Uiso   1.00
H871   H     0.62930   0.76412   0.07707   0.00000  Uiso   1.00
H872   H     0.65349   0.80663   0.09206   0.00000  Uiso   1.00
H873   H     0.58973   0.85917   0.09121   0.00000  Uiso   1.00
C874   C     0.63734   0.86043   0.10138   0.00000  Uiso   1.00
C875   C     0.66076   0.85082   0.10951   0.00000  Uiso   1.00
H876   H     0.62893   0.87049   0.11919   0.00000  Uiso   1.00
H877   H     0.63875   0.87528   0.08417   0.00000  Uiso   1.00
H878   H     0.66908   0.84072   0.09167   0.00000  Uiso   1.00
H879   H     0.65931   0.83590   0.12666   0.00000  Uiso   1.00
H880   H     0.67120   0.86867   0.11617   0.00000  Uiso   1.00
C881   C     0.59960   0.81745   0.23948   0.00000  Uiso   1.00
C882   C     0.61098   0.79014   0.23540   0.00000  Uiso   1.00
C883   C     0.63624   0.78724   0.23998   0.00000  Uiso   1.00
C884   C     0.65015   0.81167   0.24855   0.00000  Uiso   1.00
C885   C     0.63881   0.83903   0.25238   0.00000  Uiso   1.00
C886   C     0.61351   0.84187   0.24807   0.00000  Uiso   1.00
H887   H     0.58089   0.81958   0.23616   0.00000  Uiso   1.00
H888   H     0.60069   0.77207   0.22903   0.00000  Uiso   1.00
H889   H     0.64465   0.76701   0.23703   0.00000  Uiso   1.00
H890   H     0.66884   0.80952   0.25203   0.00000  Uiso   1.00
H891   H     0.60507   0.86206   0.25118   0.00000  Uiso   1.00
C892   C     0.65268   0.86332   0.26135   0.00000  Uiso   1.00
C893   C     0.67611   0.85371   0.26947   0.00000  Uiso   1.00
H894   H     0.64428   0.87338   0.27915   0.00000  Uiso   1.00
H895   H     0.65409   0.87817   0.24413   0.00000  Uiso   1.00
H896   H     0.68442   0.84361   0.25163   0.00000  Uiso   1.00
H897   H     0.67466   0.83879   0.28663   0.00000  Uiso   1.00
H898   H     0.68655   0.87156   0.27613   0.00000  Uiso   1.00
C899   C     0.61495   0.82034   0.39944   0.00000  Uiso   1.00
C900   C     0.62632   0.79303   0.39537   0.00000  Uiso   1.00
C901   C     0.65159   0.79013   0.39994   0.00000  Uiso   1.00
C902   C     0.66550   0.81456   0.40852   0.00000  Uiso   1.00
C903   C     0.65416   0.84191   0.41235   0.00000  Uiso   1.00
C904   C     0.62885   0.84476   0.40803   0.00000  Uiso   1.00
H905   H     0.59624   0.82247   0.39612   0.00000  Uiso   1.00
H906   H     0.61603   0.77496   0.38899   0.00000  Uiso   1.00
H907   H     0.66000   0.76990   0.39700   0.00000  Uiso   1.00
H908   H     0.68419   0.81241   0.41200   0.00000  Uiso   1.00
H909   H     0.62042   0.86495   0.41114   0.00000  Uiso   1.00
C910   C     0.66803   0.86621   0.42131   0.00000  Uiso   1.00
C911   C     0.69146   0.85660   0.42944   0.00000  Uiso   1.00
H912   H     0.65963   0.87627   0.43912   0.00000  Uiso   1.00
H913   H     0.66944   0.88106   0.40410   0.00000  Uiso   1.00
H914   H     0.69977   0.84650   0.41160   0.00000  Uiso   1.00
H915   H     0.69000   0.84168   0.44659   0.00000  Uiso   1.00
H916   H     0.70189   0.87445   0.43610   0.00000  Uiso   1.00
C917   C     0.62997   0.82395   0.59940   0.00000  Uiso   1.00
C918   C     0.64134   0.79665   0.59533   0.00000  Uiso   1.00
C919   C     0.66661   0.79375   0.59990   0.00000  Uiso   1.00
C920   C     0.68051   0.81817   0.60847   0.00000  Uiso   1.00
C921   C     0.66918   0.84553   0.61231   0.00000  Uiso   1.00
C922   C     0.64387   0.84837   0.60799   0.00000  Uiso   1.00
H923   H     0.61126   0.82608   0.59608   0.00000  Uiso   1.00
H924   H     0.63105   0.77857   0.58895   0.00000  Uiso   1.00
H925   H     0.67501   0.77351   0.59696   0.00000  Uiso   1.00
H926   H     0.69921   0.81602   0.61195   0.00000  Uiso   1.00
H927   H     0.63544   0.86856   0.61110   0.00000  Uiso   1.00
C928   C     0.68305   0.86982   0.62127   0.00000  Uiso   1.00
C929   C     0.70647   0.86021   0.62940   0.00000  Uiso   1.00
H930   H     0.67465   0.87988   0.63908   0.00000  Uiso   1.00
H931   H     0.68446   0.88467   0.60406   0.00000  Uiso   1.00
H932   H     0.71479   0.85011   0.61156   0.00000  Uiso   1.00
H933   H     0.70502   0.84529   0.64655   0.00000  Uiso   1.00
H934   H     0.71691   0.87806   0.63606   0.00000  Uiso   1.00
C935   C     0.64532   0.82684   0.75937   0.00000  Uiso   1.00
C936   C     0.65669   0.79953   0.75529   0.00000  Uiso   1.00
C937   C     0.68196   0.79663   0.75987   0.00000  Uiso   1.00
C938   C     0.69586   0.82106   0.76844   0.00000  Uiso   1.00
C939   C     0.68452   0.84841   0.77227   0.00000  Uiso   1.00
C940   C     0.65922   0.85126   0.76796   0.00000  Uiso   1.00
H941   H     0.62660   0.82897   0.75605   0.00000  Uiso   1.00
H942   H     0.64640   0.78146   0.74892   0.00000  Uiso   1.00
H943   H     0.69036   0.77640   0.75692   0.00000  Uiso   1.00
H944   H     0.71455   0.81891   0.77192   0.00000  Uiso   1.00
H945   H     0.65079   0.87145   0.77107   0.00000  Uiso   1.00
C946   C     0.69840   0.87271   0.78124   0.00000  Uiso   1.00
C947   C     0.72182   0.86310   0.78936   0.00000  Uiso   1.00
H948   H     0.68999   0.88277   0.79904   0.00000  Uiso   1.00
H949   H     0.69981   0.88756   0.76402   0.00000  Uiso   1.00
H950   H     0.73013   0.85300   0.77152   0.00000  Uiso   1.00
H951   H     0.72037   0.84818   0.80652   0.00000  Uiso   1.00
H952   H     0.73226   0.88095   0.79602   0.00000  Uiso   1.00
C953   C     0.79876   0.68951   0.07767   0.00000  Uiso   1.00
C954   C     0.81013   0.66221   0.07360   0.00000  Uiso   1.00
C955   C     0.83540   0.65931   0.07817   0.00000  Uiso   1.00
C956   C     0.84930   0.68374   0.08674   0.00000  Uiso   1.00
C957   C     0.83797   0.71109   0.09058   0.00000  Uiso   1.00
C958   C     0.81266   0.71393   0.08626   0.00000  Uiso   1.00
H959   H     0.78005   0.69164   0.07435   0.00000  Uiso   1.00
H960   H     0.79984   0.64413   0.06722   0.00000  Uiso   1.00
H961   H     0.84380   0.63908   0.07523   0.00000  Uiso   1.00
H962   H     0.86800   0.68158   0.09022   0.00000  Uiso   1.00
H963   H     0.80423   0.73413   0.08937   0.00000  Uiso   1.00
C964   C     0.85184   0.73538   0.09954   0.00000  Uiso   1.00
C965   C     0.87526   0.72577   0.10767   0.00000  Uiso   1.00
H966   H     0.84344   0.74545   0.11735   0.00000  Uiso   1.00
H967   H     0.85325   0.75024   0.08233   0.00000  Uiso   1.00
H968   H     0.88358   0.71567   0.08983   0.00000  Uiso   1.00
H969   H     0.87381   0.71086   0.12482   0.00000  Uiso   1.00
H970   H     0.88570   0.74363   0.11433   0.00000  Uiso   1.00
C971   C     0.81411   0.69240   0.23764   0.00000  Uiso   1.00
C972   C     0.82548   0.66510   0.23356   0.00000  Uiso   1.00
C973   C     0.85075   0.66220   0.23814   0.00000  Uiso   1.00
C974   C     0.86465   0.68663   0.24671   0.00000  Uiso   1.00
C975   C     0.85331   0.71398   0.25054   0.00000  Uiso   1.00
C976   C     0.82801   0.71682   0.24623   0.00000  Uiso   1.00
H977   H     0.79539   0.69453   0.23432   0.00000  Uiso   1.00
H978   H     0.81519   0.64702   0.22719   0.00000  Uiso   1.00
H979   H     0.85915   0.64197   0.23519   0.00000  Uiso   1.00
H980   H     0.88334   0.68447   0.25019   0.00000  Uiso   1.00
H981   H     0.81958   0.73702   0.24934   0.00000  Uiso   1.00
C982   C     0.86719   0.73827   0.25951   0.00000  Uiso   1.00
C983   C     0.89061   0.72866   0.26763   0.00000  Uiso   1.00
H984   H     0.85878   0.74833   0.27731   0.00000  Uiso   1.00
H985   H     0.86860   0.75312   0.24229   0.00000  Uiso   1.00
H986   H     0.89893   0.71856   0.24979   0.00000  Uiso   1.00
H987   H     0.88916   0.71374   0.28479   0.00000  Uiso   1.00
H988   H     0.90105   0.74651   0.27429   0.00000  Uiso   1.00
C989   C     0.82945   0.69529   0.39760   0.00000  Uiso   1.00
C990   C     0.84083   0.66799   0.39353   0.00000  Uiso   1.00
C991   C     0.86609   0.66509   0.39810   0.00000  Uiso   1.00
C992   C     0.88000   0.68951   0.40668   0.00000  Uiso   1.00
C993   C     0.86866   0.71687   0.41051   0.00000  Uiso   1.00
C994   C     0.84336   0.71971   0.40620   0.00000  Uiso   1.00
H995   H     0.81074   0.69742   0.39428   0.00000  Uiso   1.00
H996   H     0.83054   0.64991   0.38715   0.00000  Uiso   1.00
H997   H     0.87450   0.64485   0.39516   0.00000  Uiso   1.00
H998   H     0.89869   0.68736   0.41016   0.00000  Uiso   1.00
H999   H     0.83492   0.73990   0.40930   0.00000  Uiso   1.00
C1000  C     0.88253   0.74116   0.41947   0.00000  Uiso   1.00
C1001  C     0.90596   0.73155   0.42760   0.00000  Uiso   1.00
H1002  H     0.87413   0.75122   0.43728   0.00000  Uiso   1.00
H1003  H     0.88394   0.75601   0.40226   0.00000  Uiso   1.00
H1004  H     0.91427   0.72145   0.40976   0.00000  Uiso   1.00
H1005  H     0.90451   0.71663   0.44475   0.00000  Uiso   1.00
H1006  H     0.91639   0.74940   0.43426   0.00000  Uiso   1.00
C1007  C     0.84447   0.69890   0.59756   0.00000  Uiso   1.00
C1008  C     0.85584   0.67160   0.59349   0.00000  Uiso   1.00
C1009  C     0.88111   0.66870   0.59806   0.00000  Uiso   1.00
C1010  C     0.89502   0.69313   0.60663   0.00000  Uiso   1.00
C1011  C     0.88368   0.72048   0.61047   0.00000  Uiso   1.00
C1012  C     0.85837   0.72332   0.60615   0.00000  Uiso   1.00
H1013  H     0.82576   0.70103   0.59424   0.00000  Uiso   1.00
H1014  H     0.84555   0.65352   0.58711   0.00000  Uiso   1.00
H1015  H     0.88952   0.64847   0.59512   0.00000  Uiso   1.00
H1016  H     0.91371   0.69097   0.61011   0.00000  Uiso   1.00
H1017  H     0.84994   0.74352   0.60926   0.00000  Uiso   1.00
C1018  C     0.89755   0.74477   0.61943   0.00000  Uiso   1.00
C1019  C     0.92098   0.73516   0.62756   0.00000  Uiso   1.00
H1020  H     0.88915   0.75483   0.63724   0.00000  Uiso   1.00
H1021  H     0.89896   0.75963   0.60222   0.00000  Uiso   1.00
H1022  H     0.92929   0.72506   0.60972   0.00000  Uiso   1.00
H1023  H     0.91952   0.72024   0.64471   0.00000  Uiso   1.00
H1024  H     0.93141   0.75301   0.63422   0.00000  Uiso   1.00
C1025  C     0.85982   0.70179   0.75753   0.00000  Uiso   1.00
C1026  C     0.87119   0.67449   0.75345   0.00000  Uiso   1.00
C1027  C     0.89646   0.67159   0.75803   0.00000  Uiso   1.00
C1028  C     0.91036   0.69601   0.76660   0.00000  Uiso   1.00
C1029  C     0.89902   0.72337   0.77043   0.00000  Uiso   1.00
C1030  C     0.87372   0.72621   0.76612   0.00000  Uiso   1.00
H1031  H     0.84111   0.70392   0.75421   0.00000  Uiso   1.00
H1032  H     0.86090   0.65641   0.74708   0.00000  Uiso   1.00
H1033  H     0.90486   0.65135   0.75508   0.00000  Uiso   1.00
H1034  H     0.92906   0.69386   0.77008   0.00000  Uiso   1.00
H1035  H     0.86529   0.74641   0.76923   0.00000  Uiso   1.00
C1036  C     0.91290   0.74766   0.77940   0.00000  Uiso   1.00
C1037  C     0.93632   0.73805   0.78752   0.00000  Uiso   1.00
H1038  H     0.90450   0.75772   0.79720   0.00000  Uiso   1.00
H1039  H     0.91431   0.76251   0.76218   0.00000  Uiso   1.00
H1040  H     0.94464   0.72795   0.76968   0.00000  Uiso   1.00
H1041  H     0.93487   0.72313   0.80468   0.00000  Uiso   1.00
H1042  H     0.94676   0.75590   0.79418   0.00000  Uiso   1.00
loop_
_geom_bond_atom_site_label_1
_geom_bond_atom_site_label_2
_geom_bond_distance
_geom_bond_site_symmetry_2
_ccdc_geom_bond_type
F1     C36     1.366   .     S
F2     C79     1.366   .     S
F3     C94     1.365   .     S
F4     C10     1.365   .     S
F5     C10     1.363   .     S
C6     C12     1.433   .     S
C6     C13     1.399   .     S
C6     N7      1.392   .     S
N7     C11     1.345   .     S
N7     Cu26    1.860   .     S
N8     C12     1.396   .     S
N8     H430    1.110   .     S
N8     C11     1.348   .     S
F9     C10     1.358   .     S
C10    C11     1.501   .     S
C12    C97     1.397   .     S
C13    C96     1.397   .     S
C13    H14     1.092   .     S
F15    C24     1.365   .     S
F16    C24     1.362   .     S
N17    C19     1.396   .     S
N17    H419    1.110   .     S
N17    C18     1.347   .     S
C18    N22     1.345   .     S
C18    C24     1.501   .     S
C19    C25     1.432   .     S
C19    C300    1.397   .     S
C20    C299    1.397   .     S
C20    C25     1.399   .     S
C20    H21     1.092   .     S
N22    Cu26    1.861   .     S
N22    C25     1.392   .     S
F23    C24     1.359   .     S
F27    C149    1.365   .     S
C28    H29     1.092   .     S
C28    C38     1.397   .     S
C28    C70     1.399   .     S
F30    C158    1.366   .     S
F31    C36     1.363   .     S
C32    N33     1.393   .     S
C32    C82     1.399   .     S
C32    C38     1.433   .     S
N33    C37     1.345   .     S
N33    Cu128   1.860   .     S
N34    C38     1.396   .     S
N34    H431    1.110   .     S
N34    C37     1.347   .     S
F35    C36     1.358   .     S
C36    C37     1.502   .     S
C39    H40     1.092   .     S
C39    C229    1.397   .     S
C39    C91     1.399   .     S
F41    C47     1.365   .     S
F42    C47     1.363   .     S
C43    C50     1.399   .     S
C43    N44     1.392   .     S
C43    C49     1.433   .     S
N44    C48     1.345   .     S
N44    Cu63    1.860   .     S
N45    C48     1.347   .     S
N45    H432    1.110   .     S
N45    C49     1.396   .     S
F46    C47     1.358   .     S
C47    C48     1.501   .     S
C49    C165    1.397   .     S
C50    H51     1.092   .     S
C50    C164    1.397   .     S
F52    C61     1.365   .     S
F53    C61     1.363   .     S
N54    C55     1.347   .     S
N54    Cu251   1.873   .     S
N54    C56     1.396   .     S
C55    N59     1.345   .     S
C55    C61     1.502   .     S
C56    C62     1.432   .     S
C56    C371    1.397   .     S
C57    H58     1.092   .     S
C57    C370    1.397   .     S
C57    C62     1.399   .     S
N59    Cu63    1.860   .     S
N59    C62     1.392   .     S
F60    C61     1.358   .     S
N64    C69     1.346   .     A
N64    C70     1.392   .     S
N65    C71     1.396   .     S
N65    Cu130   1.874   .     S
N65    C69     1.347   .     S
F66    C68     1.362   .     S
F67    C68     1.359   .     S
C68    F177    1.366   .     S
C68    C69     1.501   .     S
C70    C71     1.433   .     S
C71    C82     1.397   .     S
C72    H73     1.092   .     S
C72    C138    1.399   .     S
C72    C81     1.397   .     S
F74    C79     1.362   .     S
C75    C81     1.433   .     S
C75    C140    1.399   .     S
C75    N76     1.392   .     S
N76    C80     1.345   .     S
N76    Cu150   1.861   .     S
N77    C81     1.396   .     S
N77    Cu131   1.873   .     S
N77    C80     1.347   .     S
F78    C79     1.359   .     S
C79    C80     1.502   .     S
C82    H83     1.092   .     S
C84    H85     1.092   .     S
C84    C146    1.399   .     S
C84    C268    1.397   .     S
N86    C90     1.345   .     S
N86    Cu128   1.861   .     S
N86    C91     1.392   .     S
N87    C92     1.396   .     S
N87    Cu320   1.873   .     S
N87    C90     1.347   .     S
F88    C193    1.366   .     S
F89    C94     1.362   .     S
C90    C94     1.501   .     S
C91    C92     1.432   .     S
C92    C269    1.397   .     S
F93    C94     1.358   .     S
N95    C96     1.396   .     S
N95    Cu131   1.874   .     S
N95    C98     1.347   .     S
C96    C103    1.433   .     S
C97    H99     1.092   .     S
C97    C103    1.399   .     S
C98    C102    1.501   .     S
C98    N100    1.345   .     A
N100   C103    1.392   .     S
F101   C102    1.358   .     S
C102   F104    1.366   .     S
C102   F105    1.363   .     S
F106   C112    1.365   .     S
F107   C112    1.362   .     S
C108   C114    1.433   .     S
C108   C115    1.399   .     S
C108   N109    1.392   .     S
N109   C113    1.345   .     S
N109   Cu129   1.860   .     S
N110   Cu130   1.874   .     S
N110   C114    1.396   .     S
N110   C113    1.347   .     S
F111   C112    1.358   .     S
C112   C113    1.501   .     S
C114   C196    1.397   .     S
C115   C195    1.397   .     S
C115   H116    1.092   .     S
F117   C126    1.365   .     S
F118   C126    1.362   .     S
N119   Cu318   1.873   .     S
N119   C121    1.396   .     S
N119   C120    1.347   .     S
C120   N124    1.345   .     S
C120   C126    1.501   .     S
C121   C127    1.432   .     S
C121   C409    1.397   .     S
C122   C408    1.397   .     S
C122   C127    1.399   .     S
C122   H123    1.092   .     S
N124   Cu129   1.861   .     S
N124   C127    1.392   .     S
F125   C126    1.359   .     S
N132   C137    1.345   .     A
N132   C138    1.392   .     S
N133   C137    1.347   .     S
N133   C139    1.396   .     S
N133   H421    1.110   .     S
F134   C136    1.363   .     S
F135   C136    1.359   .     S
C136   F206    1.365   .     S
C136   C137    1.501   .     S
C138   C139    1.433   .     S
C139   C140    1.397   .     S
C140   H141    1.092   .     S
N142   C145    1.345   .     S
N142   C146    1.392   .     S
N142   Cu150   1.860   .     S
N143   C145    1.347   .     A
N143   C147    1.396   .     S
F144   C149    1.362   .     S
C145   C149    1.502   .     S
C146   C147    1.432   .     S
C147   C329    1.397   .     S
F148   C149    1.359   .     S
C151   H152    1.092   .     S
C151   C160    1.397   .     S
C151   C182    1.399   .     S
F153   C158    1.363   .     S
C154   N155    1.392   .     S
C154   C184    1.399   .     S
C154   C160    1.433   .     S
N155   C159    1.345   .     S
N155   Cu205   1.861   .     S
N156   C160    1.396   .     S
N156   Cu174   1.874   .     S
N156   C159    1.347   .     S
F157   C158    1.358   .     S
C158   C159    1.502   .     S
C161   H162    1.092   .     S
C161   C342    1.397   .     S
C161   C190    1.399   .     S
N163   C164    1.396   .     S
N163   C166    1.347   .     S
N163   Cu174   1.873   .     S
C164   C171    1.433   .     S
C165   H167    1.092   .     S
C165   C171    1.399   .     S
C166   N168    1.345   .     A
C166   C170    1.502   .     S
N168   C171    1.393   .     S
F169   C170    1.359   .     S
C170   F173    1.362   .     S
C170   F172    1.366   .     S
N175   C181    1.345   .     A
N175   C182    1.392   .     S
N176   C183    1.396   .     S
N176   H422    1.110   .     S
N176   C181    1.347   .     S
F178   C180    1.362   .     S
F179   C180    1.358   .     S
C180   C181    1.502   .     S
C180   F207    1.365   .     S
C182   C183    1.432   .     S
C183   C184    1.397   .     S
C184   H185    1.092   .     S
N186   C189    1.345   .     S
N186   Cu205   1.861   .     S
N186   C190    1.392   .     S
N187   C191    1.396   .     S
N187   Cu415   1.874   .     S
N187   C189    1.347   .     S
F188   C193    1.363   .     S
C189   C193    1.502   .     S
C190   C191    1.433   .     S
C191   C386    1.397   .     S
F192   C193    1.358   .     S
N194   C195    1.396   .     S
N194   H423    1.110   .     S
N194   C197    1.347   .     S
C195   C202    1.433   .     S
C196   H198    1.092   .     S
C196   C202    1.399   .     S
C197   N199    1.345   .     A
C197   C201    1.502   .     S
N199   C202    1.392   .     S
F200   C201    1.359   .     S
C201   F204    1.363   .     S
C201   F203    1.365   .     S
F208   C237    1.366   .     S
F209   C277    1.366   .     S
F210   C216    1.365   .     S
F211   C216    1.362   .     S
C212   C218    1.433   .     S
C212   C219    1.399   .     S
C212   N213    1.392   .     A
N213   C217    1.345   .     S
N214   C218    1.395   .     S
N214   H424    1.110   .     S
N214   C217    1.347   .     S
F215   C216    1.358   .     S
C216   C217    1.501   .     S
C218   C284    1.397   .     S
C219   C283    1.397   .     S
C219   H220    1.092   .     S
C221   H222    1.092   .     S
C221   C239    1.397   .     S
C221   C258    1.399   .     S
N223   C227    1.345   .     S
N223   C228    1.392   .     S
N223   Cu315   1.861   .     S
N224   C229    1.396   .     S
N224   Cu251   1.874   .     S
N224   C227    1.347   .     S
F225   C226    1.359   .     S
C226   F343    1.366   .     S
C226   F230    1.362   .     S
C226   C227    1.501   .     S
C228   C269    1.399   .     S
C228   C229    1.432   .     S
F231   C350    1.366   .     S
F232   C237    1.363   .     S
C233   N234    1.393   .     A
C233   C280    1.399   .     S
C233   C239    1.433   .     S
N234   C238    1.345   .     S
N235   C239    1.396   .     S
N235   H425    1.110   .     S
N235   C238    1.347   .     S
F236   C237    1.358   .     S
C237   C238    1.502   .     S
F240   C246    1.365   .     S
F241   C246    1.363   .     S
C242   C249    1.399   .     S
C242   N243    1.392   .     A
C242   C248    1.433   .     S
N243   C247    1.345   .     S
N244   C247    1.347   .     S
N244   H426    1.110   .     S
N244   C248    1.396   .     S
F245   C246    1.359   .     S
C246   C247    1.502   .     S
C248   C355    1.397   .     S
C249   H250    1.092   .     S
C249   C354    1.397   .     S
N252   C257    1.345   .     S
N252   Cu315   1.861   .     S
N252   C258    1.392   .     S
N253   C259    1.396   .     S
N253   Cu317   1.873   .     S
N253   C257    1.347   .     S
F254   C256    1.362   .     S
F255   C256    1.359   .     S
C256   F379    1.365   .     S
C256   C257    1.501   .     S
C258   C259    1.433   .     S
C259   C280    1.397   .     S
C260   H261    1.092   .     S
C260   C327    1.399   .     S
C260   C279    1.397   .     S
N262   C266    1.345   .     S
N262   Cu333   1.861   .     S
N262   C267    1.392   .     S
N263   C268    1.396   .     S
N263   Cu318   1.874   .     S
N263   C266    1.347   .     S
F264   C265    1.359   .     S
C265   F388    1.365   .     S
C265   F271    1.363   .     S
C265   C266    1.502   .     S
C267   C268    1.433   .     S
C267   C329    1.398   .     S
C269   H270    1.092   .     S
F272   C277    1.362   .     S
C273   C279    1.433   .     S
C273   C331    1.399   .     S
C273   N274    1.392   .     A
N274   C278    1.345   .     S
N275   C279    1.396   .     S
N275   Cu319   1.874   .     S
N275   C278    1.347   .     S
F276   C277    1.358   .     S
C277   C278    1.502   .     S
C280   H281    1.092   .     S
N282   C283    1.396   .     S
N282   Cu319   1.874   .     S
N282   C285    1.347   .     S
C283   C290    1.433   .     S
C284   C290    1.399   .     S
C284   H286    1.091   .     S
C285   C289    1.501   .     S
C285   N287    1.345   .     S
N287   Cu316   1.861   .     S
N287   C290    1.392   .     S
F288   C289    1.358   .     S
C289   F291    1.366   .     S
C289   F292    1.363   .     S
N293   Cu316   1.861   .     S
N293   C297    1.345   .     S
N293   C298    1.392   .     S
N294   C299    1.396   .     S
N294   Cu320   1.874   .     S
N294   C297    1.347   .     S
F295   C296    1.359   .     S
C296   F302    1.365   .     S
C296   F303    1.362   .     S
C296   C297    1.501   .     S
C298   C299    1.432   .     S
C298   C300    1.399   .     S
C300   H301    1.092   .     S
F304   C310    1.365   .     S
F305   C310    1.362   .     S
C306   C312    1.433   .     S
C306   C313    1.399   .     S
C306   N307    1.392   .     A
N307   C311    1.345   .     S
N308   Cu317   1.874   .     S
N308   C312    1.395   .     S
N308   C311    1.347   .     S
F309   C310    1.358   .     S
C310   C311    1.502   .     S
C312   C393    1.397   .     S
C313   C392    1.397   .     S
C313   H314    1.092   .     S
N321   C326    1.345   .     S
N321   C327    1.392   .     S
N321   Cu333   1.860   .     S
N322   C326    1.347   .     S
N322   C328    1.396   .     S
N322   H427    1.110   .     S
F323   C325    1.363   .     S
F324   C325    1.359   .     S
C325   F416    1.365   .     S
C325   C326    1.501   .     S
C327   C328    1.433   .     S
C328   C331    1.397   .     S
C329   H330    1.092   .     S
C331   H332    1.092   .     S
C334   H335    1.092   .     S
C334   C352    1.397   .     S
C334   C384    1.399   .     S
N336   C340    1.345   .     S
N336   C341    1.392   .     S
N336   Cu413   1.861   .     S
N337   C342    1.396   .     S
N337   H420    1.110   .     S
N337   C340    1.347   .     S
F338   C339    1.359   .     S
C339   F344    1.363   .     S
C339   C340    1.501   .     S
C339   F417    1.365   .     S
C341   C386    1.399   .     S
C341   C342    1.432   .     S
F345   C350    1.363   .     S
C346   N347    1.392   .     A
C346   C389    1.399   .     S
C346   C352    1.433   .     S
N347   C351    1.345   .     S
N348   C352    1.396   .     S
N348   Cu376   1.874   .     S
N348   C351    1.347   .     S
F349   C350    1.358   .     S
C350   C351    1.502   .     S
N353   C354    1.396   .     S
N353   C356    1.347   .     S
N353   Cu376   1.873   .     S
C354   C361    1.433   .     S
C355   H357    1.091   .     S
C355   C361    1.399   .     S
C356   N358    1.345   .     S
C356   C360    1.502   .     S
N358   Cu375   1.860   .     S
N358   C361    1.392   .     S
F359   C360    1.359   .     S
C360   F363    1.362   .     S
C360   F362    1.366   .     S
N364   C368    1.345   .     S
N364   C369    1.392   .     S
N364   Cu375   1.861   .     S
N365   C368    1.347   .     A
N365   C370    1.396   .     S
F366   C367    1.359   .     S
C367   F374    1.363   .     S
C367   C368    1.501   .     S
C367   F373    1.365   .     S
C369   C371    1.399   .     S
C369   C370    1.433   .     S
C371   H372    1.092   .     S
N377   C383    1.345   .     S
N377   Cu413   1.861   .     S
N377   C384    1.392   .     S
N378   C385    1.396   .     S
N378   H428    1.110   .     S
N378   C383    1.347   .     S
F380   C382    1.362   .     S
F381   C382    1.358   .     S
C382   C383    1.501   .     S
C382   F418    1.366   .     S
C384   C385    1.432   .     S
C385   C389    1.397   .     S
C386   H387    1.092   .     S
C389   H390    1.092   .     S
N391   C392    1.396   .     S
N391   H429    1.110   .     S
N391   C394    1.347   .     S
C392   C399    1.433   .     S
C393   C399    1.399   .     S
C393   H395    1.092   .     S
C394   N396    1.345   .     S
C394   C398    1.501   .     S
N396   Cu414   1.861   .     S
N396   C399    1.392   .     S
F397   C398    1.358   .     S
C398   F401    1.363   .     S
C398   F400    1.366   .     S
N402   C406    1.345   .     S
N402   Cu414   1.860   .     S
N402   C407    1.392   .     S
N403   C408    1.396   .     S
N403   Cu415   1.874   .     S
N403   C406    1.347   .     S
F404   C405    1.359   .     S
C405   F412    1.362   .     S
C405   C406    1.501   .     S
C405   F411    1.365   .     S
C407   C408    1.432   .     S
C407   C409    1.399   .     S
C409   H410    1.092   .     S
C433   C434    1.540   .     A
C433   C438    1.540   .     A
C433   H441    1.140   .     S
C434   C435    1.540   .     A
C434   H442    1.140   .     S
C435   C436    1.540   .     A
C435   H443    1.140   .     S
C436   C437    1.540   .     A
C436   H444    1.140   .     S
C437   C438    1.540   .     A
C437   C439    1.540   .     S
C438   H445    1.140   .     S
C439   C440    1.540   .     D
C439   H446    1.140   .     S
C440   H447    1.140   .     S
C440   H448    1.140   .     S
C449   C450    1.540   .     A
C449   C454    1.540   .     A
C449   H457    1.140   .     S
C450   C451    1.540   .     A
C450   H458    1.140   .     S
C451   C452    1.540   .     A
C451   H459    1.140   .     S
C452   C453    1.540   .     A
C452   H460    1.140   .     S
C453   C454    1.540   .     A
C453   C455    1.540   .     S
C454   H461    1.140   .     S
C455   C456    1.540   .     D
C455   H462    1.140   .     S
C456   H463    1.140   .     S
C456   H464    1.140   .     S
C465   C466    1.540   .     A
C465   C470    1.540   .     A
C465   H473    1.140   .     S
C466   C467    1.540   .     A
C466   H474    1.140   .     S
C467   C468    1.540   .     A
C467   H475    1.140   .     S
C468   C469    1.540   .     A
C468   H476    1.140   .     S
C469   C470    1.540   .     A
C469   C471    1.540   .     S
C470   H477    1.140   .     S
C471   C472    1.540   .     D
C471   H478    1.140   .     S
C472   H479    1.140   .     S
C472   H480    1.140   .     S
C481   C482    1.540   .     A
C481   C486    1.540   .     A
C481   H489    1.140   .     S
C482   C483    1.540   .     A
C482   H490    1.140   .     S
C483   C484    1.540   .     A
C483   H491    1.140   .     S
C484   C485    1.540   .     A
C484   H492    1.140   .     S
C485   C486    1.540   .     A
C485   C487    1.540   .     S
C486   H493    1.140   .     S
C487   C488    1.540   .     D
C487   H494    1.140   .     S
C488   H495    1.140   .     S
C488   H496    1.140   .     S
C497   C498    1.540   .     A
C497   C502    1.540   .     A
C497   H505    1.140   .     S
C498   C499    1.540   .     A
C498   H506    1.140   .     S
C499   C500    1.540   .     A
C499   H507    1.140   .     S
C500   C501    1.540   .     A
C500   H508    1.140   .     S
C501   C502    1.540   .     A
C501   C503    1.540   .     S
C502   H509    1.140   .     S
C503   C504    1.540   .     D
C503   H510    1.140   .     S
C504   H511    1.140   .     S
C504   H512    1.140   .     S
C513   C514    1.540   .     A
C513   C518    1.540   .     A
C513   H521    1.140   .     S
C514   C515    1.540   .     A
C514   H522    1.140   .     S
C515   C516    1.540   .     A
C515   H523    1.140   .     S
C516   C517    1.540   .     A
C516   H524    1.140   .     S
C517   C518    1.540   .     A
C517   C519    1.540   .     S
C518   H525    1.140   .     S
C519   C520    1.541   .     D
C519   H526    1.140   .     S
C520   H527    1.140   .     S
C520   H528    1.140   .     S
C529   C530    1.540   .     A
C529   C534    1.540   .     A
C529   H537    1.140   .     S
C530   C531    1.540   .     A
C530   H538    1.140   .     S
C531   C532    1.540   .     A
C531   H539    1.140   .     S
C532   C533    1.540   .     A
C532   H540    1.140   .     S
C533   C534    1.540   .     A
C533   C535    1.540   .     S
C534   H541    1.140   .     S
C535   C536    1.540   .     D
C535   H542    1.140   .     S
C536   H543    1.140   .     S
C536   H544    1.140   .     S
C545   C546    1.540   .     A
C545   C550    1.540   .     A
C545   H553    1.140   .     S
C546   C547    1.540   .     A
C546   H554    1.140   .     S
C547   C548    1.540   .     A
C547   H555    1.140   .     S
C548   C549    1.540   .     A
C548   H556    1.140   .     S
C549   C550    1.540   .     A
C549   C551    1.540   .     S
C550   H557    1.140   .     S
C551   C552    1.540   .     D
C551   H558    1.140   .     S
C552   H559    1.140   .     S
C552   H560    1.140   .     S
C561   C562    1.540   .     A
C561   C566    1.540   .     A
C561   H569    1.140   .     S
C562   C563    1.540   .     A
C562   H570    1.140   .     S
C563   C564    1.540   .     A
C563   H571    1.140   .     S
C564   C565    1.540   .     A
C564   H572    1.140   .     S
C565   C566    1.540   .     A
C565   C567    1.540   .     S
C566   H573    1.140   .     S
C567   C568    1.540   .     D
C567   H574    1.140   .     S
C568   H575    1.140   .     S
C568   H576    1.140   .     S
C577   C578    1.540   .     A
C577   C582    1.540   .     A
C577   H585    1.140   .     S
C578   C579    1.540   .     A
C578   H586    1.140   .     S
C579   C580    1.540   .     A
C579   H587    1.140   .     S
C580   C581    1.540   .     A
C580   H588    1.140   .     S
C581   C582    1.540   .     A
C581   C583    1.540   .     S
C582   H589    1.140   .     S
C583   C584    1.540   .     D
C583   H590    1.140   .     S
C584   H591    1.140   .     S
C584   H592    1.140   .     S
C593   C594    1.540   .     A
C593   C598    1.540   .     A
C593   H599    1.140   .     S
C594   C595    1.540   .     A
C594   H600    1.140   .     S
C595   C596    1.540   .     A
C595   H601    1.140   .     S
C596   C597    1.540   .     A
C596   H602    1.140   .     S
C597   C598    1.540   .     A
C597   H604    1.140   .     S
C598   H603    1.140   .     S
C605   C606    1.540   .     A
C605   C610    1.540   .     A
C605   H611    1.140   .     S
C606   C607    1.540   .     A
C606   H612    1.140   .     S
C607   C608    1.540   .     A
C607   H613    1.140   .     S
C608   C609    1.540   .     A
C608   H614    1.140   .     S
C609   C610    1.540   .     A
C609   H616    1.140   .     S
C610   H615    1.140   .     S
C617   C618    1.540   .     A
C617   C622    1.540   .     A
C617   H623    1.140   .     S
C618   C619    1.540   .     A
C618   H624    1.140   .     S
C619   C620    1.540   .     A
C619   H625    1.140   .     S
C620   C621    1.540   .     A
C620   H626    1.140   .     S
C621   C622    1.540   .     A
C621   H628    1.140   .     S
C622   H627    1.140   .     S
C629   C630    1.540   .     A
C629   C634    1.540   .     A
C629   H635    1.140   .     S
C630   C631    1.540   .     A
C630   H636    1.140   .     S
C631   C632    1.540   .     A
C631   H637    1.140   .     S
C632   C633    1.540   .     A
C632   H638    1.140   .     S
C633   C634    1.540   .     A
C633   H640    1.140   .     S
C634   H639    1.140   .     S
C641   C642    1.540   .     A
C641   C646    1.540   .     A
C641   H647    1.140   .     S
C642   C643    1.540   .     A
C642   H648    1.140   .     S
C643   C644    1.540   .     A
C643   H649    1.140   .     S
C644   C645    1.540   .     A
C644   H650    1.140   .     S
C645   C646    1.540   .     A
C645   H652    1.140   .     S
C646   H651    1.140   .     S
C653   C654    1.540   .     A
C653   C658    1.540   .     A
C653   H659    1.140   .     S
C654   C655    1.540   .     A
C654   H660    1.140   .     S
C655   C656    1.540   .     A
C655   H661    1.140   .     S
C656   C657    1.540   .     A
C656   H662    1.140   .     S
C657   C658    1.540   .     A
C657   H664    1.140   .     S
C658   H663    1.140   .     S
C665   C666    1.540   .     A
C665   C670    1.540   .     A
C665   H671    1.140   .     S
C666   C667    1.540   .     A
C666   H672    1.140   .     S
C667   C668    1.540   .     A
C667   H673    1.140   .     S
C668   C669    1.540   .     A
C668   H674    1.140   .     S
C669   C670    1.540   .     A
C669   H676    1.140   .     S
C670   H675    1.140   .     S
C677   C678    1.540   .     A
C677   C682    1.540   .     A
C677   H683    1.140   .     S
C678   C679    1.540   .     A
C678   H684    1.140   .     S
C679   C680    1.540   .     A
C679   H685    1.140   .     S
C680   C681    1.540   .     A
C680   H686    1.140   .     S
C681   C682    1.540   .     A
C681   H688    1.140   .     S
C682   H687    1.140   .     S
C689   C690    1.540   .     A
C689   C694    1.540   .     A
C689   H695    1.140   .     S
C690   C691    1.540   .     A
C690   H696    1.140   .     S
C691   C692    1.540   .     A
C691   H697    1.140   .     S
C692   C693    1.540   .     A
C692   H698    1.140   .     S
C693   C694    1.540   .     A
C693   H700    1.140   .     S
C694   H699    1.140   .     S
C701   C702    1.540   .     A
C701   C706    1.540   .     A
C701   H707    1.140   .     S
C702   C703    1.540   .     A
C702   H708    1.140   .     S
C703   C704    1.540   .     A
C703   H709    1.140   .     S
C704   C705    1.540   .     A
C704   H710    1.140   .     S
C705   C706    1.540   .     A
C705   H712    1.140   .     S
C706   H711    1.140   .     S
C713   C714    1.540   .     A
C713   C718    1.540   .     A
C713   H719    1.140   .     S
C714   C715    1.540   .     A
C714   H720    1.140   .     S
C715   C716    1.540   .     A
C715   H721    1.140   .     S
C716   C717    1.540   .     A
C716   H722    1.140   .     S
C717   C718    1.540   .     A
C717   C724    1.540   .     S
C718   H723    1.140   .     S
C724   H725    1.140   .     S
C724   H726    1.140   .     S
C724   H727    1.140   .     S
C728   C729    1.540   .     A
C728   C733    1.540   .     A
C728   H734    1.140   .     S
C729   C730    1.540   .     A
C729   H735    1.140   .     S
C730   C731    1.540   .     A
C730   H736    1.140   .     S
C731   C732    1.540   .     A
C731   H737    1.140   .     S
C732   C733    1.540   .     A
C732   C739    1.540   .     S
C733   H738    1.140   .     S
C739   H740    1.140   .     S
C739   H741    1.140   .     S
C739   H742    1.140   .     S
C743   C744    1.540   .     A
C743   C748    1.540   .     A
C743   H749    1.140   .     S
C744   C745    1.540   .     A
C744   H750    1.140   .     S
C745   C746    1.540   .     A
C745   H751    1.140   .     S
C746   C747    1.540   .     A
C746   H752    1.140   .     S
C747   C748    1.540   .     A
C747   C754    1.540   .     S
C748   H753    1.140   .     S
C754   H755    1.140   .     S
C754   H756    1.140   .     S
C754   H757    1.140   .     S
C758   C759    1.540   .     A
C758   C763    1.540   .     A
C758   H764    1.140   .     S
C759   C760    1.540   .     A
C759   H765    1.140   .     S
C760   C761    1.540   .     A
C760   H766    1.140   .     S
C761   C762    1.540   .     A
C761   H767    1.140   .     S
C762   C763    1.540   .     A
C762   C769    1.540   .     S
C763   H768    1.140   .     S
C769   H770    1.140   .     S
C769   H771    1.140   .     S
C769   H772    1.140   .     S
C773   C774    1.540   .     A
C773   C778    1.540   .     A
C773   H779    1.140   .     S
C774   C775    1.540   .     A
C774   H780    1.140   .     S
C775   C776    1.540   .     A
C775   H781    1.140   .     S
C776   C777    1.540   .     A
C776   H782    1.140   .     S
C777   C778    1.540   .     A
C777   C784    1.540   .     S
C778   H783    1.140   .     S
C784   H785    1.140   .     S
C784   H786    1.140   .     S
C784   H787    1.140   .     S
C788   C789    1.540   .     A
C788   C793    1.540   .     A
C788   H794    1.140   .     S
C789   C790    1.540   .     A
C789   H795    1.140   .     S
C790   C791    1.540   .     A
C790   H796    1.140   .     S
C791   C792    1.540   .     A
C791   H797    1.140   .     S
C792   C793    1.540   .     A
C792   C799    1.540   .     S
C793   H798    1.140   .     S
C799   H800    1.140   .     S
C799   H801    1.140   .     S
C799   H802    1.140   .     S
C803   C804    1.540   .     A
C803   C808    1.540   .     A
C803   H809    1.140   .     S
C804   C805    1.540   .     A
C804   H810    1.140   .     S
C805   C806    1.540   .     A
C805   H811    1.140   .     S
C806   C807    1.540   .     A
C806   H812    1.140   .     S
C807   C808    1.540   .     A
C807   C814    1.540   .     S
C808   H813    1.140   .     S
C814   H815    1.140   .     S
C814   H816    1.140   .     S
C814   H817    1.140   .     S
C818   C819    1.540   .     A
C818   C823    1.540   .     A
C818   H824    1.140   .     S
C819   C820    1.540   .     A
C819   H825    1.140   .     S
C820   C821    1.540   .     A
C820   H826    1.140   .     S
C821   C822    1.540   .     A
C821   H827    1.140   .     S
C822   C823    1.540   .     A
C822   C829    1.540   .     S
C823   H828    1.140   .     S
C829   H830    1.140   .     S
C829   H831    1.140   .     S
C829   H832    1.140   .     S
C833   C834    1.540   .     A
C833   C838    1.540   .     A
C833   H839    1.140   .     S
C834   C835    1.540   .     A
C834   H840    1.140   .     S
C835   C836    1.540   .     A
C835   H841    1.140   .     S
C836   C837    1.540   .     A
C836   H842    1.140   .     S
C837   C838    1.540   .     A
C837   C844    1.540   .     S
C838   H843    1.140   .     S
C844   H845    1.140   .     S
C844   H846    1.140   .     S
C844   H847    1.140   .     S
C848   C849    1.540   .     A
C848   C853    1.540   .     A
C848   H854    1.140   .     S
C849   C850    1.540   .     A
C849   H855    1.140   .     S
C850   C851    1.540   .     A
C850   H856    1.140   .     S
C851   C852    1.540   .     A
C851   H857    1.140   .     S
C852   C853    1.540   .     A
C852   C859    1.540   .     S
C853   H858    1.140   .     S
C859   H860    1.140   .     S
C859   H861    1.140   .     S
C859   H862    1.140   .     S
C863   C864    1.540   .     A
C863   C868    1.540   .     A
C863   H869    1.140   .     S
C864   C865    1.540   .     A
C864   H870    1.140   .     S
C865   C866    1.540   .     A
C865   H871    1.140   .     S
C866   C867    1.540   .     A
C866   H872    1.140   .     S
C867   C868    1.540   .     A
C867   C874    1.539   .     S
C868   H873    1.140   .     S
C874   C875    1.540   .     S
C874   H876    1.140   .     S
C874   H877    1.140   .     S
C875   H878    1.140   .     S
C875   H879    1.140   .     S
C875   H880    1.140   .     S
C881   C882    1.540   .     A
C881   C886    1.540   .     A
C881   H887    1.140   .     S
C882   C883    1.540   .     A
C882   H888    1.140   .     S
C883   C884    1.540   .     A
C883   H889    1.140   .     S
C884   C885    1.540   .     A
C884   H890    1.140   .     S
C885   C886    1.540   .     A
C885   C892    1.539   .     S
C886   H891    1.140   .     S
C892   C893    1.540   .     S
C892   H894    1.140   .     S
C892   H895    1.140   .     S
C893   H896    1.140   .     S
C893   H897    1.140   .     S
C893   H898    1.140   .     S
C899   C900    1.540   .     A
C899   C904    1.540   .     A
C899   H905    1.140   .     S
C900   C901    1.540   .     A
C900   H906    1.140   .     S
C901   C902    1.540   .     A
C901   H907    1.140   .     S
C902   C903    1.540   .     A
C902   H908    1.140   .     S
C903   C904    1.540   .     A
C903   C910    1.539   .     S
C904   H909    1.140   .     S
C910   C911    1.540   .     S
C910   H912    1.140   .     S
C910   H913    1.140   .     S
C911   H914    1.140   .     S
C911   H915    1.140   .     S
C911   H916    1.140   .     S
C917   C918    1.540   .     A
C917   C922    1.540   .     A
C917   H923    1.140   .     S
C918   C919    1.540   .     A
C918   H924    1.140   .     S
C919   C920    1.540   .     A
C919   H925    1.140   .     S
C920   C921    1.540   .     A
C920   H926    1.140   .     S
C921   C922    1.540   .     A
C921   C928    1.539   .     S
C922   H927    1.140   .     S
C928   C929    1.540   .     S
C928   H930    1.140   .     S
C928   H931    1.140   .     S
C929   H932    1.140   .     S
C929   H933    1.140   .     S
C929   H934    1.140   .     S
C935   C936    1.540   .     A
C935   C940    1.540   .     A
C935   H941    1.140   .     S
C936   C937    1.540   .     A
C936   H942    1.140   .     S
C937   C938    1.540   .     A
C937   H943    1.140   .     S
C938   C939    1.540   .     A
C938   H944    1.140   .     S
C939   C940    1.540   .     A
C939   C946    1.539   .     S
C940   H945    1.140   .     S
C946   C947    1.540   .     S
C946   H948    1.140   .     S
C946   H949    1.140   .     S
C947   H950    1.140   .     S
C947   H951    1.140   .     S
C947   H952    1.140   .     S
C953   C954    1.540   .     A
C953   C958    1.540   .     A
C953   H959    1.140   .     S
C954   C955    1.540   .     A
C954   H960    1.140   .     S
C955   C956    1.540   .     A
C955   H961    1.140   .     S
C956   C957    1.540   .     A
C956   H962    1.140   .     S
C957   C958    1.540   .     A
C957   C964    1.539   .     S
C958   H963    1.140   .     S
C964   C965    1.540   .     S
C964   H966    1.140   .     S
C964   H967    1.140   .     S
C965   H968    1.140   .     S
C965   H969    1.140   .     S
C965   H970    1.140   .     S
C971   C972    1.540   .     A
C971   C976    1.540   .     A
C971   H977    1.140   .     S
C972   C973    1.540   .     A
C972   H978    1.140   .     S
C973   C974    1.540   .     A
C973   H979    1.140   .     S
C974   C975    1.540   .     A
C974   H980    1.140   .     S
C975   C976    1.540   .     A
C975   C982    1.539   .     S
C976   H981    1.140   .     S
C982   C983    1.540   .     S
C982   H984    1.140   .     S
C982   H985    1.140   .     S
C983   H986    1.140   .     S
C983   H987    1.140   .     S
C983   H988    1.140   .     S
C989   C990    1.540   .     A
C989   C994    1.540   .     A
C989   H995    1.140   .     S
C990   C991    1.540   .     A
C990   H996    1.140   .     S
C991   C992    1.540   .     A
C991   H997    1.140   .     S
C992   C993    1.540   .     A
C992   H998    1.140   .     S
C993   C994    1.540   .     A
C993   C1000   1.539   .     S
C994   H999    1.140   .     S
C1000  C1001   1.540   .     S
C1000  H1002   1.140   .     S
C1000  H1003   1.140   .     S
C1001  H1004   1.140   .     S
C1001  H1005   1.140   .     S
C1001  H1006   1.140   .     S
C1007  C1008   1.540   .     A
C1007  C1012   1.540   .     A
C1007  H1013   1.140   .     S
C1008  C1009   1.540   .     A
C1008  H1014   1.140   .     S
C1009  C1010   1.540   .     A
C1009  H1015   1.140   .     S
C1010  C1011   1.540   .     A
C1010  H1016   1.140   .     S
C1011  C1012   1.540   .     A
C1011  C1018   1.539   .     S
C1012  H1017   1.140   .     S
C1018  C1019   1.540   .     S
C1018  H1020   1.140   .     S
C1018  H1021   1.140   .     S
C1019  H1022   1.140   .     S
C1019  H1023   1.140   .     S
C1019  H1024   1.140   .     S
C1025  C1026   1.540   .     A
C1025  C1030   1.540   .     A
C1025  H1031   1.140   .     S
C1026  C1027   1.540   .     A
C1026  H1032   1.140   .     S
C1027  C1028   1.540   .     A
C1027  H1033   1.140   .     S
C1028  C1029   1.540   .     A
C1028  H1034   1.140   .     S
C1029  C1030   1.540   .     A
C1029  C1036   1.539   .     S
C1030  H1035   1.140   .     S
C1036  C1037   1.540   .     S
C1036  H1038   1.140   .     S
C1036  H1039   1.140   .     S
C1037  H1040   1.140   .     S
C1037  H1041   1.140   .     S
C1037  H1042   1.140   .     S
