data_CuMOF-noprous-2cavity_40ST-mixed
_audit_creation_date              2019-03-15
_audit_creation_method            'Materials Studio'
_symmetry_space_group_name_H-M    'P1'
_symmetry_Int_Tables_number       1
_symmetry_cell_setting            triclinic
loop_
_symmetry_equiv_pos_as_xyz
  x,y,z
_cell_length_a                    60.0000
_cell_length_b                    50.0000
_cell_length_c                    50.0000
_cell_angle_alpha                 90.0000
_cell_angle_beta                  90.0000
_cell_angle_gamma                 90.0000
loop_
_atom_site_label
_atom_site_type_symbol
_atom_site_fract_x
_atom_site_fract_y
_atom_site_fract_z
_atom_site_U_iso_or_equiv
_atom_site_adp_type
_atom_site_occupancy
F1     F     0.41381   0.61876   0.59591   0.00000  Uiso   1.00
F2     F     0.65305   0.46847   0.53525   0.00000  Uiso   1.00
F3     F     0.49875   0.54921   0.52652   0.00000  Uiso   1.00
F4     F     0.54743   0.60960   0.54940   0.00000  Uiso   1.00
F5     F     0.52511   0.61239   0.58504   0.00000  Uiso   1.00
C6     C     0.58723   0.56847   0.60444   0.00000  Uiso   1.00
N7     N     0.57762   0.57716   0.58194   0.00000  Uiso   1.00
N8     N     0.55801   0.59091   0.61868   0.00000  Uiso   1.00
F9     F     0.53077   0.57458   0.56461   0.00000  Uiso   1.00
C10    C     0.54094   0.59714   0.57211   0.00000  Uiso   1.00
C11    C     0.55980   0.59033   0.59100   0.00000  Uiso   1.00
C12    C     0.57628   0.57750   0.62816   0.00000  Uiso   1.00
C13    C     0.60615   0.55203   0.60475   0.00000  Uiso   1.00
H14    H     0.61395   0.54263   0.58756   0.00000  Uiso   1.00
F15    F     0.64324   0.55453   0.49904   0.00000  Uiso   1.00
F16    F     0.62444   0.56038   0.53732   0.00000  Uiso   1.00
N17    N     0.60770   0.56722   0.46811   0.00000  Uiso   1.00
C18    C     0.60700   0.56672   0.49554   0.00000  Uiso   1.00
C19    C     0.58580   0.56804   0.46161   0.00000  Uiso   1.00
C20    C     0.54862   0.56734   0.48392   0.00000  Uiso   1.00
H21    H     0.53867   0.56716   0.50292   0.00000  Uiso   1.00
N22    N     0.58605   0.56766   0.50589   0.00000  Uiso   1.00
F23    F     0.63534   0.59417   0.51459   0.00000  Uiso   1.00
C24    C     0.62746   0.56978   0.51175   0.00000  Uiso   1.00
C25    C     0.57277   0.56780   0.48485   0.00000  Uiso   1.00
Cu26   Cu    0.58194   0.57174   0.54340   0.00000  Uiso   1.00
C27    C     0.43282   0.55384   0.66653   0.00000  Uiso   1.00
H28    H     0.42459   0.56410   0.68185   0.00000  Uiso   1.00
F29    F     0.38234   0.51954   0.56298   0.00000  Uiso   1.00
F30    F     0.38058   0.59918   0.59811   0.00000  Uiso   1.00
C31    C     0.43635   0.54493   0.61786   0.00000  Uiso   1.00
N32    N     0.42695   0.55549   0.59524   0.00000  Uiso   1.00
N33    N     0.40815   0.57253   0.63171   0.00000  Uiso   1.00
F34    F     0.40249   0.59176   0.56246   0.00000  Uiso   1.00
C35    C     0.40188   0.59592   0.58951   0.00000  Uiso   1.00
C36    C     0.41177   0.57320   0.60542   0.00000  Uiso   1.00
C37    C     0.42513   0.55695   0.64009   0.00000  Uiso   1.00
C38    C     0.40648   0.54991   0.49568   0.00000  Uiso   1.00
H39    H     0.39614   0.55817   0.51171   0.00000  Uiso   1.00
F40    F     0.24904   0.63733   0.60561   0.00000  Uiso   1.00
F41    F     0.24435   0.60272   0.57832   0.00000  Uiso   1.00
C42    C     0.30318   0.57670   0.61604   0.00000  Uiso   1.00
N43    N     0.29116   0.58430   0.59525   0.00000  Uiso   1.00
N44    N     0.27294   0.59947   0.63234   0.00000  Uiso   1.00
F45    F     0.27155   0.62920   0.56993   0.00000  Uiso   1.00
C46    C     0.25988   0.61729   0.58999   0.00000  Uiso   1.00
C47    C     0.27495   0.60087   0.60592   0.00000  Uiso   1.00
C48    C     0.29167   0.58580   0.63944   0.00000  Uiso   1.00
C49    C     0.32309   0.56225   0.62138   0.00000  Uiso   1.00
H50    H     0.33244   0.55506   0.60438   0.00000  Uiso   1.00
F51    F     0.33320   0.55257   0.55507   0.00000  Uiso   1.00
F52    F     0.34109   0.59300   0.53995   0.00000  Uiso   1.00
N53    N     0.32081   0.55428   0.48948   0.00000  Uiso   1.00
C54    C     0.31861   0.56342   0.51414   0.00000  Uiso   1.00
C55    C     0.30135   0.56017   0.47782   0.00000  Uiso   1.00
C56    C     0.26365   0.57168   0.49462   0.00000  Uiso   1.00
H57    H     0.25246   0.58088   0.50927   0.00000  Uiso   1.00
N58    N     0.29792   0.56927   0.52164   0.00000  Uiso   1.00
F59    F     0.35703   0.55794   0.52354   0.00000  Uiso   1.00
C60    C     0.33750   0.56690   0.53256   0.00000  Uiso   1.00
C61    C     0.28656   0.56658   0.49853   0.00000  Uiso   1.00
Cu62   Cu    0.29268   0.57778   0.55744   0.00000  Uiso   1.00
N63    N     0.46113   0.52879   0.69365   0.00000  Uiso   1.00
N64    N     0.47646   0.50388   0.65883   0.00000  Uiso   1.00
F65    F     0.47762   0.48375   0.72406   0.00000  Uiso   1.00
F66    F     0.50284   0.47868   0.69319   0.00000  Uiso   1.00
C67    C     0.48988   0.49758   0.70472   0.00000  Uiso   1.00
C68    C     0.47588   0.51140   0.68527   0.00000  Uiso   1.00
C69    C     0.45134   0.53609   0.67038   0.00000  Uiso   1.00
C70    C     0.46167   0.52254   0.64883   0.00000  Uiso   1.00
F71    F     0.65696   0.50819   0.55170   0.00000  Uiso   1.00
F72    F     0.63222   0.48067   0.56559   0.00000  Uiso   1.00
C73    C     0.65281   0.48254   0.55768   0.00000  Uiso   1.00
C74    C     0.45454   0.52727   0.62285   0.00000  Uiso   1.00
H75    H     0.46403   0.51902   0.60687   0.00000  Uiso   1.00
C76    C     0.65845   0.43357   0.48034   0.00000  Uiso   1.00
H77    H     0.65053   0.43591   0.50044   0.00000  Uiso   1.00
N78    N     0.44036   0.54536   0.52441   0.00000  Uiso   1.00
N79    N     0.46590   0.54596   0.48891   0.00000  Uiso   1.00
F80    F     0.44892   0.47455   0.54772   0.00000  Uiso   1.00
F81    F     0.48192   0.51401   0.54517   0.00000  Uiso   1.00
C82    C     0.46177   0.54283   0.51515   0.00000  Uiso   1.00
C83    C     0.42959   0.54345   0.50087   0.00000  Uiso   1.00
C84    C     0.44459   0.54114   0.47924   0.00000  Uiso   1.00
F85    F     0.47524   0.55477   0.55685   0.00000  Uiso   1.00
C86    C     0.47906   0.53956   0.53588   0.00000  Uiso   1.00
N87    N     0.62835   0.52494   0.63605   0.00000  Uiso   1.00
C88    C     0.61396   0.54374   0.63046   0.00000  Uiso   1.00
C89    C     0.58479   0.57103   0.65345   0.00000  Uiso   1.00
C90    C     0.63110   0.52875   0.66315   0.00000  Uiso   1.00
H91    H     0.58194   0.58296   0.67202   0.00000  Uiso   1.00
N92    N     0.61633   0.54660   0.67506   0.00000  Uiso   1.00
C93    C     0.64899   0.51311   0.67684   0.00000  Uiso   1.00
C94    C     0.60498   0.55468   0.65402   0.00000  Uiso   1.00
F95    F     0.64931   0.51750   0.70441   0.00000  Uiso   1.00
F96    F     0.64825   0.48586   0.67414   0.00000  Uiso   1.00
F97    F     0.48635   0.45232   0.57433   0.00000  Uiso   1.00
F98    F     0.51323   0.47630   0.56140   0.00000  Uiso   1.00
C99    C     0.54709   0.43207   0.61599   0.00000  Uiso   1.00
N100   N     0.53697   0.43956   0.59329   0.00000  Uiso   1.00
N101   N     0.51438   0.45204   0.62823   0.00000  Uiso   1.00
F102   F     0.49261   0.48891   0.59611   0.00000  Uiso   1.00
C103   C     0.50304   0.46713   0.58352   0.00000  Uiso   1.00
C104   C     0.51816   0.45200   0.60115   0.00000  Uiso   1.00
C105   C     0.53341   0.43941   0.63687   0.00000  Uiso   1.00
C106   C     0.56559   0.41434   0.62026   0.00000  Uiso   1.00
H107   H     0.57636   0.41052   0.60348   0.00000  Uiso   1.00
F108   F     0.61213   0.43092   0.52098   0.00000  Uiso   1.00
F109   F     0.58828   0.42539   0.55342   0.00000  Uiso   1.00
N110   N     0.57530   0.42324   0.48673   0.00000  Uiso   1.00
C111   C     0.57257   0.42912   0.51278   0.00000  Uiso   1.00
C112   C     0.55400   0.41807   0.47853   0.00000  Uiso   1.00
C113   C     0.51675   0.42200   0.49679   0.00000  Uiso   1.00
H114   H     0.50492   0.42582   0.51231   0.00000  Uiso   1.00
N115   N     0.55191   0.42857   0.52222   0.00000  Uiso   1.00
F116   F     0.59160   0.46464   0.53608   0.00000  Uiso   1.00
C117   C     0.59159   0.43750   0.53066   0.00000  Uiso   1.00
C118   C     0.53961   0.42550   0.49999   0.00000  Uiso   1.00
Cu119  Cu    0.43172   0.55144   0.56027   0.00000  Uiso   1.00
Cu120  Cu    0.54392   0.43490   0.55732   0.00000  Uiso   1.00
Cu121  Cu    0.49515   0.47754   0.64225   0.00000  Uiso   1.00
Cu122  Cu    0.64852   0.50025   0.62065   0.00000  Uiso   1.00
C123   C     0.41211   0.47448   0.65868   0.00000  Uiso   1.00
H124   H     0.40490   0.48327   0.67610   0.00000  Uiso   1.00
F125   F     0.35718   0.51709   0.59277   0.00000  Uiso   1.00
C126   C     0.41489   0.46689   0.61005   0.00000  Uiso   1.00
N127   N     0.40313   0.47287   0.58777   0.00000  Uiso   1.00
N128   N     0.38664   0.49386   0.62599   0.00000  Uiso   1.00
F129   F     0.36059   0.48495   0.56335   0.00000  Uiso   1.00
C130   C     0.37259   0.50222   0.57818   0.00000  Uiso   1.00
C131   C     0.38724   0.48892   0.59801   0.00000  Uiso   1.00
C132   C     0.40450   0.47866   0.63218   0.00000  Uiso   1.00
C133   C     0.37619   0.47435   0.48621   0.00000  Uiso   1.00
H134   H     0.36529   0.47888   0.50346   0.00000  Uiso   1.00
N135   N     0.34766   0.54409   0.65783   0.00000  Uiso   1.00
C136   C     0.33057   0.55938   0.64909   0.00000  Uiso   1.00
C137   C     0.29821   0.58424   0.66686   0.00000  Uiso   1.00
C138   C     0.34761   0.54909   0.68421   0.00000  Uiso   1.00
H139   H     0.28753   0.59056   0.68328   0.00000  Uiso   1.00
N140   N     0.33185   0.56708   0.69256   0.00000  Uiso   1.00
F141   F     0.37959   0.55656   0.70896   0.00000  Uiso   1.00
C142   C     0.36521   0.53663   0.70189   0.00000  Uiso   1.00
C143   C     0.31948   0.57124   0.67080   0.00000  Uiso   1.00
F144   F     0.35634   0.52571   0.72287   0.00000  Uiso   1.00
F145   F     0.37711   0.51790   0.68849   0.00000  Uiso   1.00
Cu146  Cu    0.36741   0.52005   0.64104   0.00000  Uiso   1.00
N147   N     0.44178   0.44630   0.68246   0.00000  Uiso   1.00
N148   N     0.46187   0.43508   0.64517   0.00000  Uiso   1.00
F149   F     0.50371   0.51358   0.71870   0.00000  Uiso   1.00
F150   F     0.48073   0.42947   0.71092   0.00000  Uiso   1.00
C151   C     0.47319   0.41485   0.68960   0.00000  Uiso   1.00
C152   C     0.45817   0.43122   0.67238   0.00000  Uiso   1.00
C153   C     0.43198   0.45736   0.66128   0.00000  Uiso   1.00
C154   C     0.44405   0.44936   0.63776   0.00000  Uiso   1.00
C155   C     0.43582   0.45425   0.61235   0.00000  Uiso   1.00
H156   H     0.44726   0.45198   0.59567   0.00000  Uiso   1.00
N157   N     0.40997   0.46654   0.51504   0.00000  Uiso   1.00
N158   N     0.43512   0.45875   0.48152   0.00000  Uiso   1.00
F159   F     0.46868   0.45037   0.51665   0.00000  Uiso   1.00
C160   C     0.43029   0.46013   0.50750   0.00000  Uiso   1.00
C161   C     0.39940   0.47034   0.49087   0.00000  Uiso   1.00
C162   C     0.41499   0.46450   0.47110   0.00000  Uiso   1.00
F163   F     0.44290   0.43371   0.54197   0.00000  Uiso   1.00
C164   C     0.44788   0.45546   0.52794   0.00000  Uiso   1.00
N165   N     0.58694   0.39029   0.65559   0.00000  Uiso   1.00
C166   C     0.57045   0.40565   0.64669   0.00000  Uiso   1.00
C167   C     0.53875   0.43289   0.66538   0.00000  Uiso   1.00
H168   H     0.52973   0.43791   0.68380   0.00000  Uiso   1.00
C169   C     0.55729   0.41569   0.66816   0.00000  Uiso   1.00
Cu170  Cu    0.40673   0.47001   0.55153   0.00000  Uiso   1.00
F171   F     0.49079   0.40488   0.67519   0.00000  Uiso   1.00
F172   F     0.34562   0.56241   0.23000   0.00000  Uiso   1.00
F173   F     0.45906   0.58152   0.23658   0.00000  Uiso   1.00
F174   F     0.45817   0.53908   0.22536   0.00000  Uiso   1.00
C175   C     0.52242   0.54798   0.26513   0.00000  Uiso   1.00
N176   N     0.50987   0.54587   0.24237   0.00000  Uiso   1.00
N177   N     0.48872   0.56547   0.27399   0.00000  Uiso   1.00
F178   F     0.48042   0.56661   0.20495   0.00000  Uiso   1.00
C179   C     0.47193   0.56084   0.22962   0.00000  Uiso   1.00
C180   C     0.49090   0.55778   0.24890   0.00000  Uiso   1.00
C181   C     0.50994   0.56199   0.28324   0.00000  Uiso   1.00
C182   C     0.54503   0.53927   0.27080   0.00000  Uiso   1.00
H183   H     0.55484   0.52981   0.25605   0.00000  Uiso   1.00
C184   C     0.37896   0.53057   0.33091   0.00000  Uiso   1.00
H185   H     0.36812   0.54034   0.34546   0.00000  Uiso   1.00
N186   N     0.40165   0.53263   0.42513   0.00000  Uiso   1.00
N187   N     0.37718   0.54506   0.45918   0.00000  Uiso   1.00
F188   F     0.36225   0.52406   0.39670   0.00000  Uiso   1.00
C189   C     0.36179   0.54208   0.41590   0.00000  Uiso   1.00
C190   C     0.38094   0.53775   0.43376   0.00000  Uiso   1.00
C191   C     0.41327   0.53703   0.44836   0.00000  Uiso   1.00
C192   C     0.39807   0.54476   0.46909   0.00000  Uiso   1.00
F193   F     0.36223   0.56649   0.40469   0.00000  Uiso   1.00
F194   F     0.32116   0.56227   0.26337   0.00000  Uiso   1.00
C195   C     0.38260   0.51911   0.28239   0.00000  Uiso   1.00
N196   N     0.37265   0.52505   0.25965   0.00000  Uiso   1.00
N197   N     0.35145   0.53987   0.29503   0.00000  Uiso   1.00
F198   F     0.32338   0.52657   0.23755   0.00000  Uiso   1.00
C199   C     0.33606   0.54611   0.24968   0.00000  Uiso   1.00
C200   C     0.35349   0.53615   0.26828   0.00000  Uiso   1.00
C201   C     0.37093   0.53093   0.30411   0.00000  Uiso   1.00
C202   C     0.24800   0.57610   0.27858   0.00000  Uiso   1.00
N203   N     0.23783   0.58563   0.25714   0.00000  Uiso   1.00
N204   N     0.21756   0.59773   0.29334   0.00000  Uiso   1.00
C205   C     0.21981   0.59805   0.26621   0.00000  Uiso   1.00
C206   C     0.23622   0.58530   0.30106   0.00000  Uiso   1.00
C207   C     0.26772   0.56100   0.27965   0.00000  Uiso   1.00
H208   H     0.27404   0.54971   0.26288   0.00000  Uiso   1.00
Cu209  Cu    0.34904   0.54940   0.47426   0.00000  Uiso   1.00
N210   N     0.41088   0.51319   0.35823   0.00000  Uiso   1.00
N211   N     0.42779   0.48929   0.32483   0.00000  Uiso   1.00
F212   F     0.45017   0.50747   0.38563   0.00000  Uiso   1.00
F213   F     0.43790   0.46563   0.38522   0.00000  Uiso   1.00
C214   C     0.44469   0.48555   0.36912   0.00000  Uiso   1.00
C215   C     0.42664   0.49465   0.35056   0.00000  Uiso   1.00
C216   C     0.39873   0.51499   0.33571   0.00000  Uiso   1.00
C217   C     0.41032   0.50199   0.31449   0.00000  Uiso   1.00
C218   C     0.63131   0.45596   0.31287   0.00000  Uiso   1.00
H219   H     0.62254   0.46468   0.33049   0.00000  Uiso   1.00
N220   N     0.64652   0.43277   0.40792   0.00000  Uiso   1.00
N221   N     0.62582   0.43145   0.44754   0.00000  Uiso   1.00
F222   F     0.58894   0.44588   0.41823   0.00000  Uiso   1.00
C223   C     0.60486   0.43158   0.40617   0.00000  Uiso   1.00
C224   C     0.62596   0.43494   0.42040   0.00000  Uiso   1.00
C225   C     0.64730   0.43359   0.45397   0.00000  Uiso   1.00
C226   C     0.43720   0.53730   0.45243   0.00000  Uiso   1.00
H227   H     0.44960   0.53459   0.43637   0.00000  Uiso   1.00
F228   F     0.59969   0.40582   0.40657   0.00000  Uiso   1.00
N229   N     0.60789   0.48108   0.27886   0.00000  Uiso   1.00
F230   F     0.59646   0.52286   0.24002   0.00000  Uiso   1.00
C231   C     0.62273   0.46238   0.28679   0.00000  Uiso   1.00
C232   C     0.40313   0.50514   0.28627   0.00000  Uiso   1.00
H233   H     0.41219   0.49631   0.26832   0.00000  Uiso   1.00
N234   N     0.56810   0.52856   0.31003   0.00000  Uiso   1.00
C235   C     0.55061   0.54120   0.29833   0.00000  Uiso   1.00
C236   C     0.51787   0.56838   0.30904   0.00000  Uiso   1.00
C237   C     0.56443   0.53370   0.33582   0.00000  Uiso   1.00
H238   H     0.50962   0.58194   0.32424   0.00000  Uiso   1.00
N239   N     0.54717   0.55161   0.34091   0.00000  Uiso   1.00
F240   F     0.59161   0.50443   0.35177   0.00000  Uiso   1.00
C241   C     0.57555   0.52267   0.35942   0.00000  Uiso   1.00
C242   C     0.53748   0.55438   0.31731   0.00000  Uiso   1.00
F243   F     0.58578   0.54091   0.37516   0.00000  Uiso   1.00
F244   F     0.56263   0.50865   0.37727   0.00000  Uiso   1.00
N245   N     0.53959   0.56572   0.41413   0.00000  Uiso   1.00
N246   N     0.51828   0.56458   0.45182   0.00000  Uiso   1.00
F247   F     0.49892   0.58676   0.39281   0.00000  Uiso   1.00
C248   C     0.49985   0.56504   0.40697   0.00000  Uiso   1.00
C249   C     0.51936   0.56596   0.42524   0.00000  Uiso   1.00
C250   C     0.55263   0.56548   0.43629   0.00000  Uiso   1.00
C251   C     0.54021   0.56470   0.45795   0.00000  Uiso   1.00
C252   C     0.57613   0.56646   0.43673   0.00000  Uiso   1.00
H253   H     0.58605   0.56570   0.41803   0.00000  Uiso   1.00
F254   F     0.50235   0.54513   0.39009   0.00000  Uiso   1.00
F255   F     0.47883   0.56084   0.41904   0.00000  Uiso   1.00
Cu256  Cu    0.40691   0.52344   0.39076   0.00000  Uiso   1.00
Cu257  Cu    0.54523   0.56217   0.37662   0.00000  Uiso   1.00
Cu258  Cu    0.44527   0.46285   0.31079   0.00000  Uiso   1.00
Cu259  Cu    0.60019   0.42727   0.46718   0.00000  Uiso   1.00
Cu260  Cu    0.58872   0.50622   0.29405   0.00000  Uiso   1.00
Cu261  Cu    0.49321   0.55539   0.47144   0.00000  Uiso   1.00
N262   N     0.65882   0.42594   0.33464   0.00000  Uiso   1.00
C263   C     0.64972   0.43661   0.31310   0.00000  Uiso   1.00
Cu264  Cu    0.65253   0.43099   0.37128   0.00000  Uiso   1.00
C265   C     0.35528   0.46659   0.31583   0.00000  Uiso   1.00
H266   H     0.35219   0.48108   0.33247   0.00000  Uiso   1.00
N267   N     0.37083   0.45555   0.41713   0.00000  Uiso   1.00
N268   N     0.34777   0.46297   0.45338   0.00000  Uiso   1.00
F269   F     0.31364   0.47419   0.42116   0.00000  Uiso   1.00
C270   C     0.32880   0.45643   0.41161   0.00000  Uiso   1.00
C271   C     0.34969   0.45812   0.42636   0.00000  Uiso   1.00
C272   C     0.38297   0.46048   0.43987   0.00000  Uiso   1.00
C273   C     0.36900   0.46534   0.46116   0.00000  Uiso   1.00
F274   F     0.34153   0.53935   0.42848   0.00000  Uiso   1.00
F275   F     0.32077   0.43196   0.41280   0.00000  Uiso   1.00
F276   F     0.28644   0.49338   0.25637   0.00000  Uiso   1.00
N277   N     0.32491   0.48078   0.28440   0.00000  Uiso   1.00
C278   C     0.34339   0.46758   0.29076   0.00000  Uiso   1.00
N279   N     0.29124   0.53715   0.31362   0.00000  Uiso   1.00
C280   C     0.27783   0.55715   0.30521   0.00000  Uiso   1.00
C281   C     0.24649   0.58071   0.32643   0.00000  Uiso   1.00
C282   C     0.28974   0.53817   0.34034   0.00000  Uiso   1.00
H283   H     0.24021   0.58969   0.34410   0.00000  Uiso   1.00
N284   N     0.27431   0.55503   0.35063   0.00000  Uiso   1.00
F285   F     0.32654   0.52895   0.35407   0.00000  Uiso   1.00
C286   C     0.30512   0.52194   0.35746   0.00000  Uiso   1.00
C287   C     0.26552   0.56490   0.32799   0.00000  Uiso   1.00
F288   F     0.29872   0.52446   0.38302   0.00000  Uiso   1.00
F289   F     0.30298   0.49523   0.35217   0.00000  Uiso   1.00
N290   N     0.26119   0.56822   0.42280   0.00000  Uiso   1.00
N291   N     0.23641   0.57426   0.45569   0.00000  Uiso   1.00
F292   F     0.22546   0.59561   0.39036   0.00000  Uiso   1.00
C293   C     0.22155   0.57674   0.40863   0.00000  Uiso   1.00
C294   C     0.24027   0.57487   0.42912   0.00000  Uiso   1.00
C295   C     0.27233   0.56747   0.44623   0.00000  Uiso   1.00
C296   C     0.25645   0.57091   0.46692   0.00000  Uiso   1.00
C297   C     0.29438   0.55944   0.45017   0.00000  Uiso   1.00
H298   H     0.30307   0.55136   0.43282   0.00000  Uiso   1.00
F299   F     0.21904   0.55278   0.39669   0.00000  Uiso   1.00
Cu300  Cu    0.26745   0.56142   0.38697   0.00000  Uiso   1.00
Cu301  Cu    0.30765   0.50888   0.29970   0.00000  Uiso   1.00
N302   N     0.38360   0.44110   0.34209   0.00000  Uiso   1.00
F303   F     0.46258   0.47642   0.35755   0.00000  Uiso   1.00
F304   F     0.40778   0.40375   0.37488   0.00000  Uiso   1.00
F305   F     0.41426   0.37812   0.34074   0.00000  Uiso   1.00
C306   C     0.41311   0.40408   0.34900   0.00000  Uiso   1.00
C307   C     0.39698   0.42010   0.33286   0.00000  Uiso   1.00
C308   C     0.37242   0.44719   0.31964   0.00000  Uiso   1.00
C309   C     0.37968   0.42916   0.29919   0.00000  Uiso   1.00
C310   C     0.40711   0.46059   0.44460   0.00000  Uiso   1.00
H311   H     0.41869   0.45759   0.42868   0.00000  Uiso   1.00
F312   F     0.60628   0.43883   0.38082   0.00000  Uiso   1.00
C313   C     0.49186   0.42280   0.32712   0.00000  Uiso   1.00
C314   C     0.53506   0.38107   0.34487   0.00000  Uiso   1.00
H315   H     0.48334   0.43343   0.34378   0.00000  Uiso   1.00
N316   N     0.52013   0.39860   0.35383   0.00000  Uiso   1.00
F317   F     0.53893   0.34884   0.37994   0.00000  Uiso   1.00
C318   C     0.55012   0.36758   0.36482   0.00000  Uiso   1.00
C319   C     0.51075   0.40692   0.33132   0.00000  Uiso   1.00
F320   F     0.56646   0.35532   0.35189   0.00000  Uiso   1.00
F321   F     0.55804   0.38332   0.38273   0.00000  Uiso   1.00
N322   N     0.51103   0.41159   0.42598   0.00000  Uiso   1.00
N323   N     0.48803   0.42522   0.46022   0.00000  Uiso   1.00
F324   F     0.47816   0.43163   0.39051   0.00000  Uiso   1.00
C325   C     0.47378   0.41849   0.41334   0.00000  Uiso   1.00
C326   C     0.49104   0.41735   0.43487   0.00000  Uiso   1.00
C327   C     0.52238   0.41440   0.44804   0.00000  Uiso   1.00
C328   C     0.50858   0.42092   0.46997   0.00000  Uiso   1.00
C329   C     0.54527   0.41351   0.45149   0.00000  Uiso   1.00
H330   H     0.55696   0.40792   0.43546   0.00000  Uiso   1.00
F331   F     0.46751   0.39459   0.40486   0.00000  Uiso   1.00
F332   F     0.45478   0.42961   0.42282   0.00000  Uiso   1.00
Cu333  Cu    0.37719   0.44934   0.38044   0.00000  Uiso   1.00
Cu334  Cu    0.51626   0.40613   0.39011   0.00000  Uiso   1.00
Cu335  Cu    0.46045   0.44084   0.46908   0.00000  Uiso   1.00
F336   F     0.33000   0.46295   0.38572   0.00000  Uiso   1.00
F337   F     0.43237   0.41513   0.34544   0.00000  Uiso   1.00
H338   H     0.62190   0.57087   0.45640   0.00000  Uiso   1.00
H339   H     0.33249   0.46833   0.46220   0.00000  Uiso   1.00
H340   H     0.47398   0.42346   0.63506   0.00000  Uiso   1.00
H341   H     0.47437   0.57555   0.28257   0.00000  Uiso   1.00
H342   H     0.33780   0.54918   0.30717   0.00000  Uiso   1.00
H343   H     0.54294   0.59964   0.62627   0.00000  Uiso   1.00
H344   H     0.39676   0.58372   0.64137   0.00000  Uiso   1.00
H345   H     0.26250   0.61025   0.64616   0.00000  Uiso   1.00
C346   C     0.55843   0.49748   0.45506   0.00000  Uiso   1.00
C347   C     0.56509   0.50229   0.48341   0.00000  Uiso   1.00
C348   C     0.54702   0.50101   0.50209   0.00000  Uiso   1.00
C349   C     0.52435   0.49690   0.49364   0.00000  Uiso   1.00
C350   C     0.51930   0.48954   0.46603   0.00000  Uiso   1.00
C351   C     0.53674   0.48726   0.44741   0.00000  Uiso   1.00
C352   C     0.49653   0.48540   0.46078   0.00000  Uiso   1.00
C353   C     0.48631   0.48546   0.43480   0.00000  Uiso   1.00
H354   H     0.56902   0.50538   0.43883   0.00000  Uiso   1.00
H355   H     0.58071   0.51094   0.49038   0.00000  Uiso   1.00
H356   H     0.54985   0.50323   0.52203   0.00000  Uiso   1.00
H357   H     0.51020   0.49830   0.50652   0.00000  Uiso   1.00
H358   H     0.53437   0.48324   0.42637   0.00000  Uiso   1.00
H359   H     0.48537   0.48136   0.47642   0.00000  Uiso   1.00
H360   H     0.49593   0.49214   0.41754   0.00000  Uiso   1.00
H361   H     0.46760   0.48343   0.43351   0.00000  Uiso   1.00
H362   H     0.32910   0.57132   0.71345   0.00000  Uiso   1.00
H363   H     0.43749   0.44772   0.70183   0.00000  Uiso   1.00
H364   H     0.46004   0.53595   0.71345   0.00000  Uiso   1.00
H365   H     0.61826   0.55349   0.69473   0.00000  Uiso   1.00
H366   H     0.37722   0.52078   0.23967   0.00000  Uiso   1.00
H367   H     0.23814   0.58408   0.23670   0.00000  Uiso   1.00
H368   H     0.22134   0.58043   0.46399   0.00000  Uiso   1.00
F369   F     0.75378   0.41364   0.48982   0.00000  Uiso   1.00
C370   C     0.69254   0.45848   0.63966   0.00000  Uiso   1.00
H371   H     0.68664   0.46894   0.65741   0.00000  Uiso   1.00
C372   C     0.69532   0.44765   0.59189   0.00000  Uiso   1.00
N373   N     0.68610   0.45494   0.56895   0.00000  Uiso   1.00
N374   N     0.66902   0.47721   0.60346   0.00000  Uiso   1.00
C375   C     0.67007   0.47249   0.57726   0.00000  Uiso   1.00
C376   C     0.68620   0.46185   0.61319   0.00000  Uiso   1.00
F377   F     0.66964   0.51996   0.66924   0.00000  Uiso   1.00
N378   N     0.72068   0.43469   0.66690   0.00000  Uiso   1.00
N379   N     0.73658   0.41028   0.63343   0.00000  Uiso   1.00
F380   F     0.76885   0.42369   0.68273   0.00000  Uiso   1.00
C381   C     0.75128   0.40610   0.68063   0.00000  Uiso   1.00
C382   C     0.73502   0.41569   0.65961   0.00000  Uiso   1.00
C383   C     0.71009   0.44031   0.64448   0.00000  Uiso   1.00
C384   C     0.72050   0.42603   0.62342   0.00000  Uiso   1.00
C385   C     0.71387   0.43013   0.59568   0.00000  Uiso   1.00
H386   H     0.72350   0.42161   0.57874   0.00000  Uiso   1.00
N387   N     0.69666   0.43150   0.49942   0.00000  Uiso   1.00
N388   N     0.71524   0.42675   0.45953   0.00000  Uiso   1.00
F389   F     0.73631   0.42043   0.52700   0.00000  Uiso   1.00
C390   C     0.71613   0.42815   0.48695   0.00000  Uiso   1.00
C391   C     0.68241   0.42951   0.47951   0.00000  Uiso   1.00
C392   C     0.69297   0.42479   0.45504   0.00000  Uiso   1.00
F393   F     0.74698   0.45162   0.50174   0.00000  Uiso   1.00
C394   C     0.73744   0.42754   0.50175   0.00000  Uiso   1.00
Cu395  Cu    0.69197   0.44169   0.53418   0.00000  Uiso   1.00
C396   C     0.65905   0.43222   0.42896   0.00000  Uiso   1.00
F397   F     0.70892   0.41719   0.34422   0.00000  Uiso   1.00
F398   F     0.68369   0.39164   0.36448   0.00000  Uiso   1.00
C399   C     0.69223   0.39923   0.34109   0.00000  Uiso   1.00
C400   C     0.67632   0.41041   0.32389   0.00000  Uiso   1.00
C401   C     0.68263   0.42718   0.42936   0.00000  Uiso   1.00
H402   H     0.69273   0.42718   0.41034   0.00000  Uiso   1.00
H403   H     0.74886   0.39943   0.62278   0.00000  Uiso   1.00
H404   H     0.71905   0.44274   0.68539   0.00000  Uiso   1.00
H405   H     0.72744   0.42972   0.44491   0.00000  Uiso   1.00
F406   F     0.74035   0.40393   0.70412   0.00000  Uiso   1.00
F407   F     0.76096   0.38203   0.67547   0.00000  Uiso   1.00
F408   F     0.46145   0.39385   0.70111   0.00000  Uiso   1.00
C409   C     0.58344   0.39071   0.68214   0.00000  Uiso   1.00
N410   N     0.56605   0.40516   0.69107   0.00000  Uiso   1.00
F411   F     0.58672   0.35875   0.71435   0.00000  Uiso   1.00
C412   C     0.59802   0.37770   0.70061   0.00000  Uiso   1.00
F413   F     0.61494   0.36447   0.68910   0.00000  Uiso   1.00
F414   F     0.60722   0.39546   0.71862   0.00000  Uiso   1.00
H415   H     0.59690   0.37630   0.64470   0.00000  Uiso   1.00
H416   H     0.56032   0.40751   0.71129   0.00000  Uiso   1.00
F417   F     0.57246   0.48908   0.24137   0.00000  Uiso   1.00
F418   F     0.30108   0.46958   0.22288   0.00000  Uiso   1.00
F419   F     0.59753   0.49287   0.20920   0.00000  Uiso   1.00
C420   C     0.63251   0.45039   0.26280   0.00000  Uiso   1.00
N421   N     0.62425   0.46246   0.24126   0.00000  Uiso   1.00
C422   C     0.59390   0.49535   0.23555   0.00000  Uiso   1.00
C423   C     0.60994   0.48035   0.25209   0.00000  Uiso   1.00
F424   F     0.44751   0.46886   0.24752   0.00000  Uiso   1.00
F425   F     0.42575   0.43761   0.26060   0.00000  Uiso   1.00
C426   C     0.49283   0.41126   0.27985   0.00000  Uiso   1.00
N427   N     0.48042   0.41581   0.25837   0.00000  Uiso   1.00
N428   N     0.46428   0.43677   0.29529   0.00000  Uiso   1.00
F429   F     0.44553   0.43159   0.22540   0.00000  Uiso   1.00
C430   C     0.44625   0.44177   0.25087   0.00000  Uiso   1.00
C431   C     0.46426   0.43144   0.26849   0.00000  Uiso   1.00
C432   C     0.48177   0.42276   0.30173   0.00000  Uiso   1.00
C433   C     0.51430   0.39691   0.28236   0.00000  Uiso   1.00
H434   H     0.52342   0.38628   0.26585   0.00000  Uiso   1.00
C435   C     0.65209   0.43394   0.26398   0.00000  Uiso   1.00
H436   H     0.66025   0.42727   0.24493   0.00000  Uiso   1.00
C437   C     0.34909   0.44888   0.27077   0.00000  Uiso   1.00
N438   N     0.33582   0.45388   0.25015   0.00000  Uiso   1.00
F439   F     0.28499   0.44920   0.25524   0.00000  Uiso   1.00
C440   C     0.29826   0.47059   0.24971   0.00000  Uiso   1.00
C441   C     0.32004   0.46878   0.26157   0.00000  Uiso   1.00
N442   N     0.39375   0.41159   0.30774   0.00000  Uiso   1.00
C443   C     0.36744   0.42852   0.27428   0.00000  Uiso   1.00
H444   H     0.37116   0.41224   0.25893   0.00000  Uiso   1.00
N445   N     0.53706   0.37856   0.31820   0.00000  Uiso   1.00
C446   C     0.51967   0.39356   0.30984   0.00000  Uiso   1.00
H447   H     0.40282   0.39567   0.29954   0.00000  Uiso   1.00
H448   H     0.54701   0.36487   0.30866   0.00000  Uiso   1.00
H449   H     0.62661   0.45841   0.22070   0.00000  Uiso   1.00
H450   H     0.51443   0.54042   0.22308   0.00000  Uiso   1.00
H451   H     0.48421   0.40829   0.23932   0.00000  Uiso   1.00
H452   H     0.33581   0.44501   0.23063   0.00000  Uiso   1.00
F453   F     0.21238   0.61845   0.22590   0.00000  Uiso   1.00
F454   F     0.18925   0.62852   0.25956   0.00000  Uiso   1.00
F455   F     0.18877   0.58898   0.24185   0.00000  Uiso   1.00
C456   C     0.20152   0.60843   0.24798   0.00000  Uiso   1.00
F457   F     0.20239   0.58496   0.42090   0.00000  Uiso   1.00
H458   H     0.20383   0.60556   0.30395   0.00000  Uiso   1.00
N459   N     0.67911   0.41358   0.29725   0.00000  Uiso   1.00
C460   C     0.66005   0.42679   0.29018   0.00000  Uiso   1.00
F461   F     0.70253   0.37814   0.32770   0.00000  Uiso   1.00
H462   H     0.69045   0.40361   0.28657   0.00000  Uiso   1.00
C463   C     0.89133   0.22756   0.91900   0.00000  Uiso   1.00
C464   C     0.87850   0.20089   0.91900   0.00000  Uiso   1.00
C465   C     0.85283   0.20089   0.91900   0.00000  Uiso   1.00
C466   C     0.84000   0.22756   0.91900   0.00000  Uiso   1.00
C467   C     0.85283   0.25424   0.91900   0.00000  Uiso   1.00
C468   C     0.87850   0.25424   0.91900   0.00000  Uiso   1.00
C469   C     0.84385   0.27820   0.90293   0.00000  Uiso   1.00
C470   C     0.81932   0.28726   0.90293   0.00000  Uiso   1.00
H471   H     0.91033   0.22756   0.91900   0.00000  Uiso   1.00
H472   H     0.88800   0.18114   0.91900   0.00000  Uiso   1.00
H473   H     0.84333   0.18114   0.91900   0.00000  Uiso   1.00
H474   H     0.82100   0.22756   0.91900   0.00000  Uiso   1.00
H475   H     0.88800   0.27398   0.91900   0.00000  Uiso   1.00
H476   H     0.85564   0.29052   0.88997   0.00000  Uiso   1.00
H477   H     0.80674   0.27697   0.91657   0.00000  Uiso   1.00
H478   H     0.81374   0.30426   0.88929   0.00000  Uiso   1.00
C479   C     0.87488   0.22991   0.73901   0.00000  Uiso   1.00
C480   C     0.86205   0.20323   0.73901   0.00000  Uiso   1.00
C481   C     0.83638   0.20323   0.73901   0.00000  Uiso   1.00
C482   C     0.82355   0.22991   0.73901   0.00000  Uiso   1.00
C483   C     0.83638   0.25658   0.73901   0.00000  Uiso   1.00
C484   C     0.86205   0.25658   0.73901   0.00000  Uiso   1.00
C485   C     0.82740   0.28055   0.72295   0.00000  Uiso   1.00
C486   C     0.80287   0.28961   0.72295   0.00000  Uiso   1.00
H487   H     0.89388   0.22991   0.73901   0.00000  Uiso   1.00
H488   H     0.87155   0.18349   0.73901   0.00000  Uiso   1.00
H489   H     0.82688   0.18349   0.73901   0.00000  Uiso   1.00
H490   H     0.80455   0.22991   0.73901   0.00000  Uiso   1.00
H491   H     0.87155   0.27633   0.73901   0.00000  Uiso   1.00
H492   H     0.83919   0.29287   0.70998   0.00000  Uiso   1.00
H493   H     0.79029   0.27932   0.73659   0.00000  Uiso   1.00
H494   H     0.79729   0.30660   0.70931   0.00000  Uiso   1.00
C495   C     0.85831   0.23222   0.53903   0.00000  Uiso   1.00
C496   C     0.84548   0.20555   0.53903   0.00000  Uiso   1.00
C497   C     0.81981   0.20555   0.53903   0.00000  Uiso   1.00
C498   C     0.80698   0.23222   0.53903   0.00000  Uiso   1.00
C499   C     0.81981   0.25890   0.53903   0.00000  Uiso   1.00
C500   C     0.84548   0.25890   0.53903   0.00000  Uiso   1.00
C501   C     0.81083   0.28287   0.52297   0.00000  Uiso   1.00
C502   C     0.78630   0.29192   0.52297   0.00000  Uiso   1.00
H503   H     0.87731   0.23222   0.53903   0.00000  Uiso   1.00
H504   H     0.85498   0.18580   0.53903   0.00000  Uiso   1.00
H505   H     0.81031   0.18580   0.53903   0.00000  Uiso   1.00
H506   H     0.78798   0.23222   0.53903   0.00000  Uiso   1.00
H507   H     0.85498   0.27864   0.53903   0.00000  Uiso   1.00
H508   H     0.82262   0.29518   0.51000   0.00000  Uiso   1.00
H509   H     0.77372   0.28163   0.53661   0.00000  Uiso   1.00
H510   H     0.78072   0.30892   0.50932   0.00000  Uiso   1.00
C511   C     0.84163   0.23453   0.31905   0.00000  Uiso   1.00
C512   C     0.82879   0.20786   0.31905   0.00000  Uiso   1.00
C513   C     0.80313   0.20786   0.31905   0.00000  Uiso   1.00
C514   C     0.79029   0.23453   0.31905   0.00000  Uiso   1.00
C515   C     0.80313   0.26120   0.31905   0.00000  Uiso   1.00
C516   C     0.82879   0.26120   0.31905   0.00000  Uiso   1.00
C517   C     0.79415   0.28517   0.30299   0.00000  Uiso   1.00
C518   C     0.76962   0.29423   0.30299   0.00000  Uiso   1.00
H519   H     0.86063   0.23453   0.31905   0.00000  Uiso   1.00
H520   H     0.83829   0.18811   0.31905   0.00000  Uiso   1.00
H521   H     0.79363   0.18811   0.31905   0.00000  Uiso   1.00
H522   H     0.77129   0.23453   0.31905   0.00000  Uiso   1.00
H523   H     0.83829   0.28095   0.31905   0.00000  Uiso   1.00
H524   H     0.80594   0.29749   0.29002   0.00000  Uiso   1.00
H525   H     0.75704   0.28394   0.31663   0.00000  Uiso   1.00
H526   H     0.76404   0.31123   0.28934   0.00000  Uiso   1.00
C527   C     0.82506   0.23686   0.11907   0.00000  Uiso   1.00
C528   C     0.81222   0.21018   0.11907   0.00000  Uiso   1.00
C529   C     0.78656   0.21018   0.11907   0.00000  Uiso   1.00
C530   C     0.77372   0.23686   0.11907   0.00000  Uiso   1.00
C531   C     0.78656   0.26353   0.11907   0.00000  Uiso   1.00
C532   C     0.81222   0.26353   0.11907   0.00000  Uiso   1.00
C533   C     0.77758   0.28750   0.10300   0.00000  Uiso   1.00
C534   C     0.75305   0.29656   0.10300   0.00000  Uiso   1.00
H535   H     0.84406   0.23686   0.11907   0.00000  Uiso   1.00
H536   H     0.82172   0.19044   0.11907   0.00000  Uiso   1.00
H537   H     0.77706   0.19044   0.11907   0.00000  Uiso   1.00
H538   H     0.75472   0.23686   0.11907   0.00000  Uiso   1.00
H539   H     0.82172   0.28327   0.11907   0.00000  Uiso   1.00
H540   H     0.78937   0.29981   0.09004   0.00000  Uiso   1.00
H541   H     0.74047   0.28627   0.11665   0.00000  Uiso   1.00
H542   H     0.74747   0.31355   0.08936   0.00000  Uiso   1.00
C543   C     0.20958   0.31611   0.92199   0.00000  Uiso   1.00
C544   C     0.19675   0.28943   0.92199   0.00000  Uiso   1.00
C545   C     0.17108   0.28943   0.92199   0.00000  Uiso   1.00
C546   C     0.15825   0.31611   0.92199   0.00000  Uiso   1.00
C547   C     0.17108   0.34278   0.92199   0.00000  Uiso   1.00
C548   C     0.19675   0.34278   0.92199   0.00000  Uiso   1.00
C549   C     0.16211   0.36675   0.90593   0.00000  Uiso   1.00
C550   C     0.13757   0.37581   0.90593   0.00000  Uiso   1.00
H551   H     0.22858   0.31611   0.92199   0.00000  Uiso   1.00
H552   H     0.20625   0.26969   0.92199   0.00000  Uiso   1.00
H553   H     0.16158   0.26969   0.92199   0.00000  Uiso   1.00
H554   H     0.13925   0.31611   0.92199   0.00000  Uiso   1.00
H555   H     0.20625   0.36253   0.92199   0.00000  Uiso   1.00
H556   H     0.17389   0.37907   0.89297   0.00000  Uiso   1.00
H557   H     0.12500   0.36552   0.91957   0.00000  Uiso   1.00
H558   H     0.13199   0.39280   0.89229   0.00000  Uiso   1.00
C559   C     0.19313   0.31845   0.74201   0.00000  Uiso   1.00
C560   C     0.18030   0.29178   0.74201   0.00000  Uiso   1.00
C561   C     0.15463   0.29178   0.74201   0.00000  Uiso   1.00
C562   C     0.14180   0.31845   0.74201   0.00000  Uiso   1.00
C563   C     0.15463   0.34513   0.74201   0.00000  Uiso   1.00
C564   C     0.18030   0.34513   0.74201   0.00000  Uiso   1.00
C565   C     0.14565   0.36910   0.72595   0.00000  Uiso   1.00
C566   C     0.12112   0.37815   0.72595   0.00000  Uiso   1.00
H567   H     0.21213   0.31845   0.74201   0.00000  Uiso   1.00
H568   H     0.18980   0.27203   0.74201   0.00000  Uiso   1.00
H569   H     0.14513   0.27203   0.74201   0.00000  Uiso   1.00
H570   H     0.12280   0.31845   0.74201   0.00000  Uiso   1.00
H571   H     0.18980   0.36487   0.74201   0.00000  Uiso   1.00
H572   H     0.15744   0.38141   0.71298   0.00000  Uiso   1.00
H573   H     0.10854   0.36786   0.73959   0.00000  Uiso   1.00
H574   H     0.11554   0.39515   0.71231   0.00000  Uiso   1.00
C575   C     0.17656   0.32078   0.54203   0.00000  Uiso   1.00
C576   C     0.16373   0.29410   0.54203   0.00000  Uiso   1.00
C577   C     0.13806   0.29410   0.54203   0.00000  Uiso   1.00
C578   C     0.12523   0.32078   0.54203   0.00000  Uiso   1.00
C579   C     0.13806   0.34745   0.54203   0.00000  Uiso   1.00
C580   C     0.16373   0.34745   0.54203   0.00000  Uiso   1.00
C581   C     0.12908   0.37142   0.52597   0.00000  Uiso   1.00
C582   C     0.10455   0.38048   0.52597   0.00000  Uiso   1.00
H583   H     0.19556   0.32078   0.54203   0.00000  Uiso   1.00
H584   H     0.17323   0.27436   0.54203   0.00000  Uiso   1.00
H585   H     0.12856   0.27436   0.54203   0.00000  Uiso   1.00
H586   H     0.10623   0.32078   0.54203   0.00000  Uiso   1.00
H587   H     0.17323   0.36720   0.54203   0.00000  Uiso   1.00
H588   H     0.14087   0.38374   0.51300   0.00000  Uiso   1.00
H589   H     0.09197   0.37019   0.53961   0.00000  Uiso   1.00
H590   H     0.09897   0.39747   0.51232   0.00000  Uiso   1.00
C591   C     0.15988   0.32307   0.32205   0.00000  Uiso   1.00
C592   C     0.14705   0.29640   0.32205   0.00000  Uiso   1.00
C593   C     0.12138   0.29640   0.32205   0.00000  Uiso   1.00
C594   C     0.10855   0.32307   0.32205   0.00000  Uiso   1.00
C595   C     0.12138   0.34975   0.32205   0.00000  Uiso   1.00
C596   C     0.14705   0.34975   0.32205   0.00000  Uiso   1.00
C597   C     0.11240   0.37372   0.30598   0.00000  Uiso   1.00
C598   C     0.08787   0.38277   0.30598   0.00000  Uiso   1.00
H599   H     0.17888   0.32307   0.32205   0.00000  Uiso   1.00
H600   H     0.15655   0.27666   0.32205   0.00000  Uiso   1.00
H601   H     0.11188   0.27666   0.32205   0.00000  Uiso   1.00
H602   H     0.08955   0.32307   0.32205   0.00000  Uiso   1.00
H603   H     0.15655   0.36949   0.32205   0.00000  Uiso   1.00
H604   H     0.12419   0.38603   0.29302   0.00000  Uiso   1.00
H605   H     0.07529   0.37248   0.31963   0.00000  Uiso   1.00
H606   H     0.08229   0.39977   0.29234   0.00000  Uiso   1.00
C607   C     0.14331   0.32540   0.12207   0.00000  Uiso   1.00
C608   C     0.13048   0.29873   0.12207   0.00000  Uiso   1.00
C609   C     0.10481   0.29873   0.12207   0.00000  Uiso   1.00
C610   C     0.09198   0.32540   0.12207   0.00000  Uiso   1.00
C611   C     0.10481   0.35207   0.12207   0.00000  Uiso   1.00
C612   C     0.13048   0.35207   0.12207   0.00000  Uiso   1.00
C613   C     0.09583   0.37604   0.10600   0.00000  Uiso   1.00
C614   C     0.07130   0.38510   0.10600   0.00000  Uiso   1.00
H615   H     0.16231   0.32540   0.12207   0.00000  Uiso   1.00
H616   H     0.13998   0.27898   0.12207   0.00000  Uiso   1.00
H617   H     0.09531   0.27898   0.12207   0.00000  Uiso   1.00
H618   H     0.07298   0.32540   0.12207   0.00000  Uiso   1.00
H619   H     0.13998   0.37182   0.12207   0.00000  Uiso   1.00
H620   H     0.10762   0.38836   0.09304   0.00000  Uiso   1.00
H621   H     0.05872   0.37481   0.11964   0.00000  Uiso   1.00
H622   H     0.06572   0.40210   0.09236   0.00000  Uiso   1.00
C623   C     0.35317   0.20430   0.72009   0.00000  Uiso   1.00
C624   C     0.34248   0.17631   0.72054   0.00000  Uiso   1.00
C625   C     0.31694   0.17340   0.71961   0.00000  Uiso   1.00
C626   C     0.30209   0.19849   0.71823   0.00000  Uiso   1.00
C627   C     0.31279   0.22648   0.71778   0.00000  Uiso   1.00
C628   C     0.33833   0.22939   0.71871   0.00000  Uiso   1.00
H629   H     0.37208   0.20645   0.72077   0.00000  Uiso   1.00
H630   H     0.35347   0.15774   0.72157   0.00000  Uiso   1.00
H631   H     0.30902   0.15268   0.71995   0.00000  Uiso   1.00
H632   H     0.28319   0.19633   0.71754   0.00000  Uiso   1.00
H633   H     0.34624   0.25011   0.71838   0.00000  Uiso   1.00
H634   H     0.30180   0.24505   0.71675   0.00000  Uiso   1.00
C635   C     0.33741   0.20177   0.52011   0.00000  Uiso   1.00
C636   C     0.32672   0.17378   0.52057   0.00000  Uiso   1.00
C637   C     0.30118   0.17087   0.51964   0.00000  Uiso   1.00
C638   C     0.28633   0.19596   0.51825   0.00000  Uiso   1.00
C639   C     0.29703   0.22395   0.51780   0.00000  Uiso   1.00
C640   C     0.32257   0.22686   0.51874   0.00000  Uiso   1.00
H641   H     0.35632   0.20393   0.52079   0.00000  Uiso   1.00
H642   H     0.33771   0.15521   0.52159   0.00000  Uiso   1.00
H643   H     0.29326   0.15015   0.51998   0.00000  Uiso   1.00
H644   H     0.26743   0.19380   0.51756   0.00000  Uiso   1.00
H645   H     0.33048   0.24758   0.51841   0.00000  Uiso   1.00
H646   H     0.28604   0.24252   0.51678   0.00000  Uiso   1.00
C647   C     0.32154   0.19922   0.30014   0.00000  Uiso   1.00
C648   C     0.31085   0.17123   0.30059   0.00000  Uiso   1.00
C649   C     0.28531   0.16832   0.29967   0.00000  Uiso   1.00
C650   C     0.27046   0.19341   0.29828   0.00000  Uiso   1.00
C651   C     0.28116   0.22140   0.29783   0.00000  Uiso   1.00
C652   C     0.30670   0.22431   0.29876   0.00000  Uiso   1.00
H653   H     0.34045   0.20137   0.30082   0.00000  Uiso   1.00
H654   H     0.32184   0.15266   0.30162   0.00000  Uiso   1.00
H655   H     0.27739   0.14760   0.30001   0.00000  Uiso   1.00
H656   H     0.25155   0.19125   0.29759   0.00000  Uiso   1.00
H657   H     0.31461   0.24503   0.29844   0.00000  Uiso   1.00
H658   H     0.27017   0.23997   0.29680   0.00000  Uiso   1.00
C659   C     0.60107   0.18460   0.71940   0.00000  Uiso   1.00
C660   C     0.59037   0.15660   0.71986   0.00000  Uiso   1.00
C661   C     0.56483   0.15369   0.71893   0.00000  Uiso   1.00
C662   C     0.54999   0.17878   0.71754   0.00000  Uiso   1.00
C663   C     0.56068   0.20678   0.71710   0.00000  Uiso   1.00
C664   C     0.58622   0.20968   0.71803   0.00000  Uiso   1.00
H665   H     0.61997   0.18675   0.72008   0.00000  Uiso   1.00
H666   H     0.60136   0.13803   0.72088   0.00000  Uiso   1.00
H667   H     0.55692   0.13297   0.71927   0.00000  Uiso   1.00
H668   H     0.53108   0.17663   0.71685   0.00000  Uiso   1.00
H669   H     0.59414   0.23041   0.71770   0.00000  Uiso   1.00
H670   H     0.54969   0.22535   0.71607   0.00000  Uiso   1.00
C671   C     0.58531   0.18207   0.51943   0.00000  Uiso   1.00
C672   C     0.57461   0.15407   0.51988   0.00000  Uiso   1.00
C673   C     0.54907   0.15117   0.51896   0.00000  Uiso   1.00
C674   C     0.53423   0.17625   0.51757   0.00000  Uiso   1.00
C675   C     0.54492   0.20425   0.51712   0.00000  Uiso   1.00
C676   C     0.57046   0.20715   0.51805   0.00000  Uiso   1.00
H677   H     0.60422   0.18422   0.52011   0.00000  Uiso   1.00
H678   H     0.58561   0.13550   0.52091   0.00000  Uiso   1.00
H679   H     0.54116   0.13044   0.51930   0.00000  Uiso   1.00
H680   H     0.51532   0.17410   0.51688   0.00000  Uiso   1.00
H681   H     0.57838   0.22788   0.51773   0.00000  Uiso   1.00
H682   H     0.53393   0.22282   0.51610   0.00000  Uiso   1.00
C683   C     0.56944   0.17952   0.29946   0.00000  Uiso   1.00
C684   C     0.55874   0.15152   0.29991   0.00000  Uiso   1.00
C685   C     0.53320   0.14861   0.29898   0.00000  Uiso   1.00
C686   C     0.51836   0.17370   0.29760   0.00000  Uiso   1.00
C687   C     0.52905   0.20170   0.29715   0.00000  Uiso   1.00
C688   C     0.55459   0.20460   0.29808   0.00000  Uiso   1.00
H689   H     0.58834   0.18167   0.30014   0.00000  Uiso   1.00
H690   H     0.56973   0.13295   0.30094   0.00000  Uiso   1.00
H691   H     0.52529   0.12789   0.29932   0.00000  Uiso   1.00
H692   H     0.49945   0.17155   0.29691   0.00000  Uiso   1.00
H693   H     0.56251   0.22533   0.29775   0.00000  Uiso   1.00
H694   H     0.51806   0.22027   0.29612   0.00000  Uiso   1.00
C695   C     0.58714   0.19254   0.11334   0.00000  Uiso   1.00
C696   C     0.57645   0.16455   0.11380   0.00000  Uiso   1.00
C697   C     0.55091   0.16164   0.11287   0.00000  Uiso   1.00
C698   C     0.53606   0.18672   0.11149   0.00000  Uiso   1.00
C699   C     0.54675   0.21472   0.11104   0.00000  Uiso   1.00
C700   C     0.57229   0.21763   0.11197   0.00000  Uiso   1.00
H701   H     0.60605   0.19469   0.11403   0.00000  Uiso   1.00
H702   H     0.58744   0.14598   0.11482   0.00000  Uiso   1.00
H703   H     0.54299   0.14091   0.11321   0.00000  Uiso   1.00
H704   H     0.51715   0.18457   0.11080   0.00000  Uiso   1.00
H705   H     0.58021   0.23835   0.11164   0.00000  Uiso   1.00
H706   H     0.53577   0.23329   0.11001   0.00000  Uiso   1.00
C707   C     0.61657   0.18742   0.91937   0.00000  Uiso   1.00
C708   C     0.60588   0.15942   0.91983   0.00000  Uiso   1.00
C709   C     0.58034   0.15651   0.91890   0.00000  Uiso   1.00
C710   C     0.56549   0.18160   0.91752   0.00000  Uiso   1.00
C711   C     0.57618   0.20959   0.91707   0.00000  Uiso   1.00
C712   C     0.60172   0.21250   0.91800   0.00000  Uiso   1.00
H713   H     0.63548   0.18957   0.92005   0.00000  Uiso   1.00
H714   H     0.61687   0.14085   0.92085   0.00000  Uiso   1.00
H715   H     0.57242   0.13579   0.91924   0.00000  Uiso   1.00
H716   H     0.54658   0.17945   0.91682   0.00000  Uiso   1.00
H717   H     0.60964   0.23323   0.91767   0.00000  Uiso   1.00
H718   H     0.56519   0.22817   0.91604   0.00000  Uiso   1.00
C719   C     0.89589   0.74499   0.92079   0.00000  Uiso   1.00
C720   C     0.88555   0.71712   0.92513   0.00000  Uiso   1.00
C721   C     0.86035   0.71292   0.92106   0.00000  Uiso   1.00
C722   C     0.84547   0.73662   0.91284   0.00000  Uiso   1.00
C723   C     0.85573   0.76459   0.90899   0.00000  Uiso   1.00
C724   C     0.88099   0.76869   0.91258   0.00000  Uiso   1.00
H725   H     0.91457   0.74806   0.92363   0.00000  Uiso   1.00
H726   H     0.89657   0.69959   0.93128   0.00000  Uiso   1.00
H727   H     0.85272   0.69226   0.92412   0.00000  Uiso   1.00
H728   H     0.82684   0.73348   0.90964   0.00000  Uiso   1.00
H729   H     0.88866   0.78927   0.90920   0.00000  Uiso   1.00
C730   C     0.84095   0.78811   0.90003   0.00000  Uiso   1.00
H731   H     0.83399   0.79875   0.91838   0.00000  Uiso   1.00
H732   H     0.82661   0.78023   0.88731   0.00000  Uiso   1.00
H733   H     0.85132   0.80275   0.88776   0.00000  Uiso   1.00
C734   C     0.87959   0.74667   0.72080   0.00000  Uiso   1.00
C735   C     0.86926   0.71880   0.72514   0.00000  Uiso   1.00
C736   C     0.84406   0.71460   0.72107   0.00000  Uiso   1.00
C737   C     0.82917   0.73831   0.71285   0.00000  Uiso   1.00
C738   C     0.83944   0.76627   0.70900   0.00000  Uiso   1.00
C739   C     0.86470   0.77037   0.71259   0.00000  Uiso   1.00
H740   H     0.89827   0.74974   0.72364   0.00000  Uiso   1.00
H741   H     0.88028   0.70128   0.73129   0.00000  Uiso   1.00
H742   H     0.83643   0.69395   0.72413   0.00000  Uiso   1.00
H743   H     0.81054   0.73517   0.70965   0.00000  Uiso   1.00
H744   H     0.87237   0.79095   0.70921   0.00000  Uiso   1.00
C745   C     0.82466   0.78979   0.70004   0.00000  Uiso   1.00
H746   H     0.81769   0.80043   0.71839   0.00000  Uiso   1.00
H747   H     0.81032   0.78191   0.68732   0.00000  Uiso   1.00
H748   H     0.83503   0.80444   0.68777   0.00000  Uiso   1.00
C749   C     0.86330   0.74835   0.50081   0.00000  Uiso   1.00
C750   C     0.85297   0.72049   0.50515   0.00000  Uiso   1.00
C751   C     0.82776   0.71628   0.50108   0.00000  Uiso   1.00
C752   C     0.81288   0.73999   0.49286   0.00000  Uiso   1.00
C753   C     0.82314   0.76795   0.48901   0.00000  Uiso   1.00
C754   C     0.84841   0.77205   0.49260   0.00000  Uiso   1.00
H755   H     0.88198   0.75142   0.50365   0.00000  Uiso   1.00
H756   H     0.86398   0.70296   0.51130   0.00000  Uiso   1.00
H757   H     0.82013   0.69563   0.50414   0.00000  Uiso   1.00
H758   H     0.79425   0.73685   0.48966   0.00000  Uiso   1.00
H759   H     0.85608   0.79264   0.48922   0.00000  Uiso   1.00
C760   C     0.80836   0.79148   0.48004   0.00000  Uiso   1.00
H761   H     0.80140   0.80211   0.49840   0.00000  Uiso   1.00
H762   H     0.79402   0.78359   0.46733   0.00000  Uiso   1.00
H763   H     0.81874   0.80612   0.46778   0.00000  Uiso   1.00
C764   C     0.84705   0.75024   0.30082   0.00000  Uiso   1.00
C765   C     0.83672   0.72238   0.30516   0.00000  Uiso   1.00
C766   C     0.81151   0.71818   0.30109   0.00000  Uiso   1.00
C767   C     0.79663   0.74188   0.29287   0.00000  Uiso   1.00
C768   C     0.80689   0.76985   0.28902   0.00000  Uiso   1.00
C769   C     0.83216   0.77394   0.29261   0.00000  Uiso   1.00
H770   H     0.86573   0.75331   0.30366   0.00000  Uiso   1.00
H771   H     0.84773   0.70485   0.31131   0.00000  Uiso   1.00
H772   H     0.80388   0.69752   0.30415   0.00000  Uiso   1.00
H773   H     0.77800   0.73874   0.28967   0.00000  Uiso   1.00
H774   H     0.83983   0.79453   0.28923   0.00000  Uiso   1.00
C775   C     0.79211   0.79337   0.28006   0.00000  Uiso   1.00
H776   H     0.78515   0.80400   0.29841   0.00000  Uiso   1.00
H777   H     0.77778   0.78549   0.26734   0.00000  Uiso   1.00
H778   H     0.80249   0.80801   0.26779   0.00000  Uiso   1.00
C779   C     0.83081   0.75213   0.12083   0.00000  Uiso   1.00
C780   C     0.82047   0.72427   0.12517   0.00000  Uiso   1.00
C781   C     0.79527   0.72007   0.12110   0.00000  Uiso   1.00
C782   C     0.78038   0.74377   0.11288   0.00000  Uiso   1.00
C783   C     0.79065   0.77174   0.10903   0.00000  Uiso   1.00
C784   C     0.81591   0.77583   0.11262   0.00000  Uiso   1.00
H785   H     0.84948   0.75521   0.12367   0.00000  Uiso   1.00
H786   H     0.83149   0.70674   0.13132   0.00000  Uiso   1.00
H787   H     0.78764   0.69941   0.12416   0.00000  Uiso   1.00
H788   H     0.76175   0.74063   0.10969   0.00000  Uiso   1.00
H789   H     0.82358   0.79642   0.10924   0.00000  Uiso   1.00
C790   C     0.77587   0.79526   0.10007   0.00000  Uiso   1.00
H791   H     0.76890   0.80589   0.11842   0.00000  Uiso   1.00
H792   H     0.76153   0.78738   0.08735   0.00000  Uiso   1.00
H793   H     0.78624   0.80990   0.08780   0.00000  Uiso   1.00
C794   C     0.64379   0.84765   0.92066   0.00000  Uiso   1.00
C795   C     0.63346   0.81979   0.92501   0.00000  Uiso   1.00
C796   C     0.60825   0.81558   0.92094   0.00000  Uiso   1.00
C797   C     0.59337   0.83929   0.91272   0.00000  Uiso   1.00
C798   C     0.60363   0.86725   0.90887   0.00000  Uiso   1.00
C799   C     0.62890   0.87135   0.91246   0.00000  Uiso   1.00
H800   H     0.66247   0.85072   0.92351   0.00000  Uiso   1.00
H801   H     0.64447   0.80226   0.93116   0.00000  Uiso   1.00
H802   H     0.60062   0.79493   0.92400   0.00000  Uiso   1.00
H803   H     0.57474   0.83615   0.90952   0.00000  Uiso   1.00
H804   H     0.63657   0.89194   0.90908   0.00000  Uiso   1.00
C805   C     0.58885   0.89078   0.89990   0.00000  Uiso   1.00
H806   H     0.58189   0.90141   0.91826   0.00000  Uiso   1.00
H807   H     0.57452   0.88289   0.88719   0.00000  Uiso   1.00
H808   H     0.59923   0.90542   0.88764   0.00000  Uiso   1.00
C809   C     0.62750   0.84933   0.72067   0.00000  Uiso   1.00
C810   C     0.61716   0.82147   0.72501   0.00000  Uiso   1.00
C811   C     0.59196   0.81727   0.72095   0.00000  Uiso   1.00
C812   C     0.57707   0.84097   0.71272   0.00000  Uiso   1.00
C813   C     0.58734   0.86894   0.70888   0.00000  Uiso   1.00
C814   C     0.61260   0.87303   0.71247   0.00000  Uiso   1.00
H815   H     0.64618   0.85240   0.72351   0.00000  Uiso   1.00
H816   H     0.62818   0.80394   0.73117   0.00000  Uiso   1.00
H817   H     0.58433   0.79661   0.72401   0.00000  Uiso   1.00
H818   H     0.55845   0.83783   0.70953   0.00000  Uiso   1.00
H819   H     0.62027   0.89362   0.70908   0.00000  Uiso   1.00
C820   C     0.57256   0.89246   0.69991   0.00000  Uiso   1.00
H821   H     0.56560   0.90309   0.71827   0.00000  Uiso   1.00
H822   H     0.55822   0.88458   0.68720   0.00000  Uiso   1.00
H823   H     0.58293   0.90710   0.68765   0.00000  Uiso   1.00
C824   C     0.61120   0.85101   0.50068   0.00000  Uiso   1.00
C825   C     0.60087   0.82315   0.50502   0.00000  Uiso   1.00
C826   C     0.57567   0.81895   0.50096   0.00000  Uiso   1.00
C827   C     0.56078   0.84265   0.49273   0.00000  Uiso   1.00
C828   C     0.57105   0.87062   0.48889   0.00000  Uiso   1.00
C829   C     0.59631   0.87471   0.49248   0.00000  Uiso   1.00
H830   H     0.62988   0.85409   0.50352   0.00000  Uiso   1.00
H831   H     0.61189   0.80562   0.51118   0.00000  Uiso   1.00
H832   H     0.56803   0.79829   0.50402   0.00000  Uiso   1.00
H833   H     0.54215   0.83951   0.48954   0.00000  Uiso   1.00
H834   H     0.60398   0.89530   0.48909   0.00000  Uiso   1.00
C835   C     0.55627   0.89414   0.47992   0.00000  Uiso   1.00
H836   H     0.54930   0.90477   0.49828   0.00000  Uiso   1.00
H837   H     0.54193   0.88626   0.46721   0.00000  Uiso   1.00
H838   H     0.56664   0.90878   0.46766   0.00000  Uiso   1.00
C839   C     0.59496   0.85291   0.30069   0.00000  Uiso   1.00
C840   C     0.58462   0.82504   0.30503   0.00000  Uiso   1.00
C841   C     0.55942   0.82084   0.30097   0.00000  Uiso   1.00
C842   C     0.54453   0.84454   0.29274   0.00000  Uiso   1.00
C843   C     0.55480   0.87251   0.28890   0.00000  Uiso   1.00
C844   C     0.58006   0.87661   0.29249   0.00000  Uiso   1.00
H845   H     0.61363   0.85598   0.30353   0.00000  Uiso   1.00
H846   H     0.59564   0.80751   0.31119   0.00000  Uiso   1.00
H847   H     0.55179   0.80018   0.30403   0.00000  Uiso   1.00
H848   H     0.52590   0.84140   0.28955   0.00000  Uiso   1.00
H849   H     0.58773   0.89719   0.28910   0.00000  Uiso   1.00
C850   C     0.54002   0.89603   0.27993   0.00000  Uiso   1.00
H851   H     0.53305   0.90667   0.29829   0.00000  Uiso   1.00
H852   H     0.52568   0.88815   0.26722   0.00000  Uiso   1.00
H853   H     0.55039   0.91067   0.26767   0.00000  Uiso   1.00
C854   C     0.57871   0.85480   0.12070   0.00000  Uiso   1.00
C855   C     0.56837   0.82693   0.12505   0.00000  Uiso   1.00
C856   C     0.54317   0.82273   0.12098   0.00000  Uiso   1.00
C857   C     0.52829   0.84644   0.11276   0.00000  Uiso   1.00
C858   C     0.53855   0.87440   0.10891   0.00000  Uiso   1.00
C859   C     0.56381   0.87850   0.11250   0.00000  Uiso   1.00
H860   H     0.59739   0.85787   0.12355   0.00000  Uiso   1.00
H861   H     0.57939   0.80941   0.13120   0.00000  Uiso   1.00
H862   H     0.53554   0.80208   0.12404   0.00000  Uiso   1.00
H863   H     0.50966   0.84330   0.10956   0.00000  Uiso   1.00
H864   H     0.57148   0.89908   0.10912   0.00000  Uiso   1.00
C865   C     0.52377   0.89792   0.09994   0.00000  Uiso   1.00
H866   H     0.51681   0.90856   0.11830   0.00000  Uiso   1.00
H867   H     0.50943   0.89004   0.08723   0.00000  Uiso   1.00
H868   H     0.53414   0.91257   0.08768   0.00000  Uiso   1.00
C869   C     0.39908   0.83456   0.92049   0.00000  Uiso   1.00
C870   C     0.38770   0.80726   0.92456   0.00000  Uiso   1.00
C871   C     0.36244   0.80436   0.91999   0.00000  Uiso   1.00
C872   C     0.34853   0.82878   0.91142   0.00000  Uiso   1.00
C873   C     0.35987   0.85614   0.90758   0.00000  Uiso   1.00
C874   C     0.38517   0.85898   0.91190   0.00000  Uiso   1.00
H875   H     0.41779   0.83669   0.92381   0.00000  Uiso   1.00
H876   H     0.39799   0.78918   0.93094   0.00000  Uiso   1.00
H877   H     0.35403   0.78412   0.92293   0.00000  Uiso   1.00
H878   H     0.32984   0.82663   0.90794   0.00000  Uiso   1.00
H879   H     0.39361   0.87917   0.90879   0.00000  Uiso   1.00
C880   C     0.34600   0.88043   0.89862   0.00000  Uiso   1.00
C881   C     0.32257   0.87082   0.89049   0.00000  Uiso   1.00
H882   H     0.35440   0.89049   0.88081   0.00000  Uiso   1.00
H883   H     0.34459   0.89528   0.91583   0.00000  Uiso   1.00
H884   H     0.31426   0.86072   0.90833   0.00000  Uiso   1.00
H885   H     0.32402   0.85590   0.87334   0.00000  Uiso   1.00
H886   H     0.31213   0.88867   0.88383   0.00000  Uiso   1.00
C887   C     0.38373   0.83745   0.72052   0.00000  Uiso   1.00
C888   C     0.37236   0.81014   0.72460   0.00000  Uiso   1.00
C889   C     0.34709   0.80724   0.72002   0.00000  Uiso   1.00
C890   C     0.33318   0.83167   0.71145   0.00000  Uiso   1.00
C891   C     0.34452   0.85903   0.70762   0.00000  Uiso   1.00
C892   C     0.36983   0.86187   0.71193   0.00000  Uiso   1.00
H893   H     0.40244   0.83958   0.72384   0.00000  Uiso   1.00
H894   H     0.38265   0.79207   0.73097   0.00000  Uiso   1.00
H895   H     0.33868   0.78701   0.72297   0.00000  Uiso   1.00
H896   H     0.31449   0.82952   0.70797   0.00000  Uiso   1.00
H897   H     0.37826   0.88206   0.70882   0.00000  Uiso   1.00
C898   C     0.33065   0.88332   0.69865   0.00000  Uiso   1.00
C899   C     0.30722   0.87371   0.69053   0.00000  Uiso   1.00
H900   H     0.33905   0.89338   0.68085   0.00000  Uiso   1.00
H901   H     0.32924   0.89817   0.71587   0.00000  Uiso   1.00
H902   H     0.29891   0.86361   0.70837   0.00000  Uiso   1.00
H903   H     0.30868   0.85879   0.67337   0.00000  Uiso   1.00
H904   H     0.29679   0.89156   0.68387   0.00000  Uiso   1.00
C905   C     0.36838   0.84034   0.50056   0.00000  Uiso   1.00
C906   C     0.35701   0.81303   0.50463   0.00000  Uiso   1.00
C907   C     0.33174   0.81013   0.50006   0.00000  Uiso   1.00
C908   C     0.31784   0.83456   0.49148   0.00000  Uiso   1.00
C909   C     0.32918   0.86191   0.48765   0.00000  Uiso   1.00
C910   C     0.35448   0.86476   0.49197   0.00000  Uiso   1.00
H911   H     0.38709   0.84247   0.50388   0.00000  Uiso   1.00
H912   H     0.36730   0.79496   0.51101   0.00000  Uiso   1.00
H913   H     0.32334   0.78990   0.50300   0.00000  Uiso   1.00
H914   H     0.29914   0.83241   0.48800   0.00000  Uiso   1.00
H915   H     0.36291   0.88495   0.48886   0.00000  Uiso   1.00
C916   C     0.31530   0.88621   0.47869   0.00000  Uiso   1.00
C917   C     0.29188   0.87660   0.47056   0.00000  Uiso   1.00
H918   H     0.32370   0.89627   0.46088   0.00000  Uiso   1.00
H919   H     0.31389   0.90106   0.49590   0.00000  Uiso   1.00
H920   H     0.28356   0.86650   0.48840   0.00000  Uiso   1.00
H921   H     0.29333   0.86168   0.45341   0.00000  Uiso   1.00
H922   H     0.28144   0.89445   0.46390   0.00000  Uiso   1.00
C923   C     0.35336   0.84395   0.28060   0.00000  Uiso   1.00
C924   C     0.34199   0.81665   0.28467   0.00000  Uiso   1.00
C925   C     0.31672   0.81375   0.28010   0.00000  Uiso   1.00
C926   C     0.30282   0.83817   0.27153   0.00000  Uiso   1.00
C927   C     0.31416   0.86553   0.26769   0.00000  Uiso   1.00
C928   C     0.33946   0.86837   0.27201   0.00000  Uiso   1.00
H929   H     0.37208   0.84608   0.28392   0.00000  Uiso   1.00
H930   H     0.35228   0.79857   0.29105   0.00000  Uiso   1.00
H931   H     0.30832   0.79351   0.28304   0.00000  Uiso   1.00
H932   H     0.28413   0.83602   0.26805   0.00000  Uiso   1.00
H933   H     0.34789   0.88856   0.26890   0.00000  Uiso   1.00
C934   C     0.30028   0.88982   0.25873   0.00000  Uiso   1.00
C935   C     0.27686   0.88021   0.25060   0.00000  Uiso   1.00
H936   H     0.30869   0.89988   0.24092   0.00000  Uiso   1.00
H937   H     0.29888   0.90467   0.27594   0.00000  Uiso   1.00
H938   H     0.26855   0.87011   0.26844   0.00000  Uiso   1.00
H939   H     0.27831   0.86529   0.23345   0.00000  Uiso   1.00
H940   H     0.26642   0.89806   0.24394   0.00000  Uiso   1.00
C941   C     0.33802   0.84684   0.12063   0.00000  Uiso   1.00
C942   C     0.32664   0.81953   0.12471   0.00000  Uiso   1.00
C943   C     0.30138   0.81663   0.12013   0.00000  Uiso   1.00
C944   C     0.28747   0.84106   0.11156   0.00000  Uiso   1.00
C945   C     0.29881   0.86841   0.10773   0.00000  Uiso   1.00
C946   C     0.32411   0.87126   0.11204   0.00000  Uiso   1.00
H947   H     0.35673   0.84897   0.12395   0.00000  Uiso   1.00
H948   H     0.33693   0.80146   0.13108   0.00000  Uiso   1.00
H949   H     0.29297   0.79640   0.12308   0.00000  Uiso   1.00
H950   H     0.26878   0.83891   0.10808   0.00000  Uiso   1.00
H951   H     0.33255   0.89145   0.10893   0.00000  Uiso   1.00
C952   C     0.28494   0.89271   0.09876   0.00000  Uiso   1.00
C953   C     0.26151   0.88310   0.09064   0.00000  Uiso   1.00
H954   H     0.29334   0.90277   0.08096   0.00000  Uiso   1.00
H955   H     0.28353   0.90756   0.11598   0.00000  Uiso   1.00
H956   H     0.26296   0.86818   0.07348   0.00000  Uiso   1.00
C957   C     0.18457   0.74951   0.92233   0.00000  Uiso   1.00
C958   C     0.17320   0.72221   0.92640   0.00000  Uiso   1.00
C959   C     0.14793   0.71931   0.92183   0.00000  Uiso   1.00
C960   C     0.13403   0.74374   0.91326   0.00000  Uiso   1.00
C961   C     0.14537   0.77109   0.90942   0.00000  Uiso   1.00
C962   C     0.17067   0.77393   0.91374   0.00000  Uiso   1.00
H963   H     0.20329   0.75164   0.92565   0.00000  Uiso   1.00
H964   H     0.18349   0.70413   0.93278   0.00000  Uiso   1.00
H965   H     0.13953   0.69908   0.92477   0.00000  Uiso   1.00
H966   H     0.11534   0.74158   0.90978   0.00000  Uiso   1.00
H967   H     0.17910   0.79413   0.91063   0.00000  Uiso   1.00
C968   C     0.13149   0.79538   0.90046   0.00000  Uiso   1.00
C969   C     0.10807   0.78577   0.89233   0.00000  Uiso   1.00
H970   H     0.13990   0.80545   0.88265   0.00000  Uiso   1.00
H971   H     0.13008   0.81024   0.91767   0.00000  Uiso   1.00
H972   H     0.09975   0.77567   0.91017   0.00000  Uiso   1.00
H973   H     0.10952   0.77086   0.87518   0.00000  Uiso   1.00
H974   H     0.09763   0.80363   0.88567   0.00000  Uiso   1.00
C975   C     0.16923   0.75240   0.72236   0.00000  Uiso   1.00
C976   C     0.15785   0.72510   0.72644   0.00000  Uiso   1.00
C977   C     0.13259   0.72220   0.72186   0.00000  Uiso   1.00
C978   C     0.11868   0.74663   0.71329   0.00000  Uiso   1.00
C979   C     0.13002   0.77398   0.70946   0.00000  Uiso   1.00
C980   C     0.15532   0.77682   0.71377   0.00000  Uiso   1.00
H981   H     0.18794   0.75453   0.72568   0.00000  Uiso   1.00
H982   H     0.16814   0.70702   0.73281   0.00000  Uiso   1.00
H983   H     0.12418   0.70197   0.72481   0.00000  Uiso   1.00
H984   H     0.09999   0.74447   0.70981   0.00000  Uiso   1.00
H985   H     0.16376   0.79702   0.71066   0.00000  Uiso   1.00
C986   C     0.11615   0.79827   0.70049   0.00000  Uiso   1.00
C987   C     0.09272   0.78866   0.69237   0.00000  Uiso   1.00
H988   H     0.12455   0.80833   0.68269   0.00000  Uiso   1.00
H989   H     0.11474   0.81312   0.71771   0.00000  Uiso   1.00
H990   H     0.08441   0.77856   0.71021   0.00000  Uiso   1.00
H991   H     0.09417   0.77374   0.67521   0.00000  Uiso   1.00
H992   H     0.08229   0.80651   0.68571   0.00000  Uiso   1.00
C993   C     0.15388   0.75529   0.50240   0.00000  Uiso   1.00
C994   C     0.14251   0.72799   0.50647   0.00000  Uiso   1.00
C995   C     0.11724   0.72509   0.50190   0.00000  Uiso   1.00
C996   C     0.10333   0.74951   0.49332   0.00000  Uiso   1.00
C997   C     0.11467   0.77687   0.48949   0.00000  Uiso   1.00
C998   C     0.13998   0.77971   0.49380   0.00000  Uiso   1.00
H999   H     0.17259   0.75742   0.50572   0.00000  Uiso   1.00
H1000  H     0.15280   0.70991   0.51285   0.00000  Uiso   1.00
H1001  H     0.10883   0.70485   0.50484   0.00000  Uiso   1.00
H1002  H     0.08464   0.74736   0.48984   0.00000  Uiso   1.00
H1003  H     0.14841   0.79990   0.49070   0.00000  Uiso   1.00
C1004  C     0.10080   0.80116   0.48053   0.00000  Uiso   1.00
C1005  C     0.07738   0.79155   0.47240   0.00000  Uiso   1.00
H1006  H     0.10920   0.81122   0.46272   0.00000  Uiso   1.00
H1007  H     0.09939   0.81601   0.49774   0.00000  Uiso   1.00
H1008  H     0.06906   0.78145   0.49024   0.00000  Uiso   1.00
H1009  H     0.07883   0.77663   0.45525   0.00000  Uiso   1.00
H1010  H     0.06694   0.80940   0.46574   0.00000  Uiso   1.00
C1011  C     0.13886   0.75890   0.28244   0.00000  Uiso   1.00
C1012  C     0.12749   0.73160   0.28651   0.00000  Uiso   1.00
C1013  C     0.10222   0.72870   0.28194   0.00000  Uiso   1.00
C1014  C     0.08832   0.75313   0.27337   0.00000  Uiso   1.00
C1015  C     0.09966   0.78048   0.26953   0.00000  Uiso   1.00
C1016  C     0.12496   0.78332   0.27385   0.00000  Uiso   1.00
H1017  H     0.15758   0.76103   0.28576   0.00000  Uiso   1.00
H1018  H     0.13778   0.71352   0.29289   0.00000  Uiso   1.00
H1019  H     0.09382   0.70847   0.28488   0.00000  Uiso   1.00
H1020  H     0.06963   0.75097   0.26989   0.00000  Uiso   1.00
H1021  H     0.13339   0.80352   0.27074   0.00000  Uiso   1.00
C1022  C     0.08578   0.80477   0.26057   0.00000  Uiso   1.00
C1023  C     0.06236   0.79516   0.25244   0.00000  Uiso   1.00
H1024  H     0.09418   0.81483   0.24276   0.00000  Uiso   1.00
H1025  H     0.08437   0.81963   0.27778   0.00000  Uiso   1.00
H1026  H     0.05404   0.78506   0.27028   0.00000  Uiso   1.00
H1027  H     0.06381   0.78024   0.23529   0.00000  Uiso   1.00
H1028  H     0.05192   0.81301   0.24578   0.00000  Uiso   1.00
C1029  C     0.12352   0.76179   0.12247   0.00000  Uiso   1.00
C1030  C     0.11214   0.73449   0.12655   0.00000  Uiso   1.00
C1031  C     0.08688   0.73159   0.12197   0.00000  Uiso   1.00
C1032  C     0.07297   0.75601   0.11340   0.00000  Uiso   1.00
C1033  C     0.08431   0.78337   0.10957   0.00000  Uiso   1.00
C1034  C     0.10961   0.78621   0.11388   0.00000  Uiso   1.00
H1035  H     0.14223   0.76392   0.12579   0.00000  Uiso   1.00
H1036  H     0.12243   0.71641   0.13292   0.00000  Uiso   1.00
H1037  H     0.07847   0.71135   0.12492   0.00000  Uiso   1.00
H1038  H     0.05428   0.75386   0.10992   0.00000  Uiso   1.00
H1039  H     0.11805   0.80641   0.11077   0.00000  Uiso   1.00
C1040  C     0.07044   0.80766   0.10060   0.00000  Uiso   1.00
C1041  C     0.04701   0.79805   0.09248   0.00000  Uiso   1.00
H1042  H     0.07884   0.81772   0.08280   0.00000  Uiso   1.00
H1043  H     0.06903   0.82251   0.11782   0.00000  Uiso   1.00
H1044  H     0.03870   0.78795   0.11032   0.00000  Uiso   1.00
H1045  H     0.04846   0.78313   0.07532   0.00000  Uiso   1.00
H1046  H     0.03657   0.81590   0.08582   0.00000  Uiso   1.00
C1047  C     0.33924   0.21225   0.11403   0.00000  Uiso   1.00
C1048  C     0.32855   0.18425   0.11448   0.00000  Uiso   1.00
C1049  C     0.30301   0.18134   0.11356   0.00000  Uiso   1.00
C1050  C     0.28816   0.20643   0.11217   0.00000  Uiso   1.00
C1051  C     0.29886   0.23442   0.11172   0.00000  Uiso   1.00
C1052  C     0.32440   0.23733   0.11265   0.00000  Uiso   1.00
H1053  H     0.35815   0.21440   0.11471   0.00000  Uiso   1.00
H1054  H     0.33954   0.16568   0.11551   0.00000  Uiso   1.00
H1055  H     0.29509   0.16062   0.11389   0.00000  Uiso   1.00
H1056  H     0.26926   0.20428   0.11148   0.00000  Uiso   1.00
H1057  H     0.33232   0.25806   0.11233   0.00000  Uiso   1.00
H1058  H     0.28787   0.25299   0.11069   0.00000  Uiso   1.00
C1059  C     0.36867   0.20712   0.92006   0.00000  Uiso   1.00
C1060  C     0.35798   0.17913   0.92051   0.00000  Uiso   1.00
C1061  C     0.33244   0.17622   0.91959   0.00000  Uiso   1.00
C1062  C     0.31759   0.20130   0.91820   0.00000  Uiso   1.00
C1063  C     0.32829   0.22930   0.91775   0.00000  Uiso   1.00
C1064  C     0.35383   0.23221   0.91868   0.00000  Uiso   1.00
H1065  H     0.38758   0.20927   0.92074   0.00000  Uiso   1.00
H1066  H     0.36897   0.16056   0.92154   0.00000  Uiso   1.00
H1067  H     0.32452   0.15549   0.91992   0.00000  Uiso   1.00
H1068  H     0.29869   0.19915   0.91751   0.00000  Uiso   1.00
H1069  H     0.36174   0.25293   0.91836   0.00000  Uiso   1.00
H1070  H     0.31730   0.24787   0.91672   0.00000  Uiso   1.00
loop_
_geom_bond_atom_site_label_1
_geom_bond_atom_site_label_2
_geom_bond_distance
_geom_bond_site_symmetry_2
_ccdc_geom_bond_type
F1     C35     1.385   .     S
F2     C73     1.324   .     S
F3     C86     1.359   .     S
F4     C10     1.353   .     S
F5     C10     1.379   .     S
C6     C12     1.429   .     A
C6     C13     1.401   .     A
C6     N7      1.336   .     S
N7     C11     1.335   .     S
N7     Cu26    1.963   .     S
N8     C12     1.369   .     S
N8     H343    1.073   .     S
N8     C11     1.389   .     S
F9     C10     1.336   .     S
C10    C11     1.513   .     S
C12    C89     1.401   .     A
C13    C88     1.430   .     A
C13    H14     1.086   .     S
F15    C24     1.372   .     S
F16    C24     1.374   .     S
N17    C19     1.354   .     S
N17    H338    1.050   .     S
N17    C18     1.372   .     S
C18    N22     1.360   .     S
C18    C24     1.479   .     S
C19    C25     1.400   .     A
C19    C252    1.375   .     A
C20    C251    1.399   .     A
C20    C25     1.450   .     A
C20    H21     1.122   .     S
N22    Cu26    1.903   .     S
N22    C25     1.320   .     S
F23    C24     1.316   .     S
C27    H28     1.046   .     S
C27    C37     1.409   .     A
C27    C69     1.435   .     A
F29    C130    1.292   .     S
F30    C35     1.358   .     S
C31    N32     1.370   .     S
C31    C74     1.426   .     A
C31    C37     1.432   .     A
N32    C36     1.368   .     S
N32    Cu119   1.784   .     S
N33    C37     1.349   .     S
N33    H344    1.007   .     S
N33    C36     1.333   .     S
F34    C35     1.369   .     S
C35    C36     1.509   .     S
C38    H39     1.094   .     S
C38    C192    1.445   .     A
C38    C83     1.447   .     A
F40    C46     1.427   .     S
F41    C46     1.319   .     S
C42    C49     1.421   .     A
C42    N43     1.321   .     S
C42    C48     1.433   .     A
N43    C47     1.385   .     S
N43    Cu62    1.921   .     S
N44    C47     1.328   .     S
N44    H345    1.077   .     S
N44    C48     1.363   .     S
F45    C46     1.361   .     S
C46    C47     1.458   .     S
C48    C137    1.428   .     A
C49    H50     1.080   .     S
C49    C136    1.463   .     A
F51    C60     1.359   .     S
F52    C60     1.373   .     S
N53    C54     1.322   .     S
N53    Cu209   1.872   .     S
N53    C55     1.338   .     S
C54    N58     1.329   .     S
C54    C60     1.470   .     S
C55    C61     1.401   .     A
C55    C297    1.445   .     A
C56    H57     1.095   .     S
C56    C296    1.451   .     A
C56    C61     1.411   .     A
N58    Cu62    1.866   .     S
N58    C61     1.349   .     S
F59    C60     1.333   .     S
N63    C68     1.310   .     A
N63    C69     1.353   .     A
N63    H364    1.055   .     S
N64    C70     1.381   .     A
N64    Cu121   1.918   .     S
N64    C68     1.375   .     A
F65    C67     1.398   .     S
F66    C67     1.353   .     S
C67    F149    1.348   .     S
C67    C68     1.459   .     S
C69    C70     1.416   .     A
C70    C74     1.388   .     A
F71    C73     1.340   .     S
F72    C73     1.301   .     S
C73    C375    1.511   .     S
C74    H75     1.064   .     S
C76    H77     1.118   .     S
C76    C225    1.478   .     A
C76    C391    1.453   .     A
N78    C82     1.371   .     S
N78    Cu119   1.891   .     S
N78    C83     1.346   .     S
N79    C84     1.388   .     S
N79    Cu261   1.916   .     S
N79    C82     1.344   .     S
F80    C164    1.376   .     S
F81    C86     1.370   .     S
C82    C86     1.476   .     S
C83    C84     1.412   .     A
C84    C226    1.425   .     A
F85    C86     1.315   .     S
N87    C88     1.307   .     A
N87    Cu122   1.892   .     S
N87    C90     1.378   .     A
C88    C94     1.406   .     A
C89    H91     1.117   .     S
C89    C94     1.461   .     A
C90    C93     1.494   .     S
C90    N92     1.392   .     A
N92    C94     1.317   .     A
N92    H365    1.049   .     S
C93    F95     1.396   .     S
C93    F96     1.370   .     S
C93    F377    1.340   .     S
F97    C103    1.328   .     S
F98    C103    1.344   .     S
C99    C105    1.378   .     A
C99    C106    1.436   .     A
C99    N100    1.341   .     S
N100   C104    1.347   .     S
N100   Cu120   1.861   .     S
N101   Cu121   1.857   .     S
N101   C105    1.375   .     S
N101   C104    1.373   .     S
F102   C103    1.405   .     S
C103   C104    1.474   .     S
C105   C167    1.497   .     A
C106   C166    1.421   .     A
C106   H107    1.076   .     S
F108   C117    1.364   .     S
F109   C117    1.305   .     S
N110   Cu259   1.796   .     S
N110   C112    1.367   .     S
N110   C111    1.345   .     S
C111   N115    1.327   .     S
C111   C117    1.509   .     S
C112   C118    1.426   .     A
C112   C329    1.468   .     A
C113   C328    1.429   .     A
C113   C118    1.392   .     A
C113   H114    1.069   .     S
N115   Cu120   1.847   .     S
N115   C118    1.343   .     S
F116   C117    1.384   .     S
Cu122  N374    1.892   .     S
C123   H124    1.067   .     S
C123   C132    1.417   .     A
C123   C153    1.473   .     A
F125   C130    1.393   .     S
C126   N127    1.352   .     S
C126   C155    1.410   .     A
C126   C132    1.400   .     A
N127   C131    1.347   .     S
N127   Cu170   1.831   .     S
N128   C132    1.350   .     S
N128   Cu146   1.901   .     S
N128   C131    1.421   .     S
F129   C130    1.347   .     S
C130   C131    1.482   .     S
C133   H134    1.106   .     S
C133   C273    1.399   .     A
C133   C161    1.426   .     A
N135   C136    1.352   .     A
N135   C138    1.342   .     A
N135   Cu146   1.885   .     S
C136   C143    1.405   .     A
C137   H139    1.089   .     S
C137   C143    1.445   .     A
C138   N140    1.370   .     A
C138   C142    1.512   .     S
N140   C143    1.333   .     A
N140   H362    1.079   .     S
F141   C142    1.364   .     S
C142   F145    1.355   .     S
C142   F144    1.297   .     S
N147   C152    1.338   .     A
N147   C153    1.331   .     A
N147   H363    1.005   .     S
N148   C154    1.338   .     A
N148   H340    1.059   .     S
N148   C152    1.392   .     A
F150   C151    1.369   .     S
C151   C152    1.491   .     S
C151   F171    1.373   .     S
C151   F408    1.389   .     S
C153   C154    1.438   .     A
C154   C155    1.385   .     A
C155   H156    1.086   .     S
N157   C160    1.316   .     S
N157   Cu170   1.843   .     S
N157   C161    1.378   .     S
N158   C162    1.346   .     S
N158   Cu335   1.870   .     S
N158   C160    1.333   .     S
F159   C164    1.393   .     S
C160   C164    1.487   .     S
C161   C162    1.392   .     A
C162   C310    1.421   .     A
F163   C164    1.328   .     S
N165   C166    1.329   .     A
N165   C409    1.344   .     A
N165   H415    1.069   .     S
C166   C169    1.424   .     A
C167   H168    1.097   .     S
C167   C169    1.413   .     A
C169   N410    1.366   .     A
F172   C199    1.401   .     S
F173   C179    1.337   .     S
F174   C179    1.382   .     S
C175   C181    1.368   .     A
C175   C182    1.453   .     A
C175   N176    1.369   .     A
N176   C180    1.325   .     A
N176   H450    1.039   .     S
N177   C181    1.366   .     A
N177   H341    1.086   .     S
N177   C180    1.319   .     A
F178   C179    1.366   .     S
C179   C180    1.499   .     S
C181   C236    1.412   .     A
C182   C235    1.420   .     A
C182   H183    1.056   .     S
C184   H185    1.091   .     S
C184   C201    1.424   .     A
C184   C216    1.439   .     A
N186   C190    1.340   .     S
N186   C191    1.373   .     S
N186   Cu256   1.807   .     S
N187   C192    1.348   .     S
N187   Cu209   1.862   .     S
N187   C190    1.342   .     S
F188   C189    1.317   .     S
C189   F274    1.376   .     S
C189   F193    1.343   .     S
C189   C190    1.471   .     S
C191   C226    1.450   .     A
C191   C192    1.434   .     A
F194   C199    1.386   .     S
C195   N196    1.318   .     A
C195   C232    1.429   .     A
C195   C201    1.421   .     A
N196   C200    1.347   .     A
N196   H366    1.058   .     S
N197   C201    1.331   .     A
N197   H342    1.121   .     S
N197   C200    1.356   .     A
F198   C199    1.379   .     S
C199   C200    1.486   .     S
C202   C207    1.405   .     A
C202   N203    1.322   .     A
C202   C206    1.405   .     A
N203   C205    1.327   .     A
N203   H367    1.025   .     S
N204   C205    1.363   .     A
N204   C206    1.337   .     A
N204   H458    1.056   .     S
C205   C456    1.518   .     S
C206   C281    1.429   .     A
C207   H208    1.080   .     S
C207   C280    1.427   .     A
N210   C215    1.379   .     S
N210   Cu256   1.722   .     S
N210   C216    1.344   .     S
N211   C217    1.330   .     S
N211   Cu258   1.828   .     S
N211   C215    1.316   .     S
F212   C214    1.411   .     S
F213   C214    1.344   .     S
C214   F303    1.302   .     S
C214   C215    1.497   .     S
C216   C217    1.426   .     A
C217   C232    1.484   .     A
C218   H219    1.115   .     S
C218   C263    1.469   .     A
C218   C231    1.438   .     A
N220   C224    1.386   .     S
N220   Cu264   1.869   .     S
N220   C396    1.294   .     S
N221   C225    1.333   .     S
N221   Cu259   1.836   .     S
N221   C224    1.368   .     S
F222   C223    1.337   .     S
C223   F312    1.321   .     S
C223   F228    1.325   .     S
C223   C224    1.462   .     S
C225   C396    1.437   .     A
C226   H227    1.103   .     S
N229   C231    1.351   .     A
N229   Cu260   1.865   .     S
N229   C423    1.344   .     A
F230   C422    1.402   .     S
C231   C420    1.463   .     A
C232   H233    1.138   .     S
N234   C235    1.358   .     S
N234   Cu260   1.849   .     S
N234   C237    1.334   .     S
C235   C242    1.398   .     A
C236   C242    1.430   .     A
C236   H238    1.133   .     S
C237   C241    1.463   .     S
C237   N239    1.393   .     S
N239   Cu257   1.865   .     S
N239   C242    1.323   .     S
F240   C241    1.381   .     S
C241   F243    1.352   .     S
C241   F244    1.374   .     S
N245   Cu257   1.914   .     S
N245   C249    1.335   .     S
N245   C250    1.356   .     S
N246   C251    1.351   .     S
N246   Cu261   1.854   .     S
N246   C249    1.333   .     S
F247   C248    1.298   .     S
C248   F254    1.313   .     S
C248   F255    1.414   .     S
C248   C249    1.485   .     S
C250   C251    1.315   .     A
C250   C252    1.411   .     A
C252   H253    1.109   .     S
Cu258  N428    1.898   .     S
N262   C263    1.320   .     S
N262   Cu264   1.888   .     S
N262   C400    1.412   .     S
C263   C460    1.393   .     A
C265   H266    1.118   .     S
C265   C278    1.443   .     A
C265   C308    1.427   .     A
N267   C271    1.356   .     S
N267   C272    1.373   .     S
N267   Cu333   1.899   .     S
N268   C273    1.337   .     S
N268   H339    1.052   .     S
N268   C271    1.377   .     S
F269   C270    1.358   .     S
C270   F275    1.316   .     S
C270   C271    1.457   .     S
C270   F336    1.337   .     S
C272   C310    1.468   .     A
C272   C273    1.376   .     A
F276   C440    1.383   .     S
N277   C278    1.329   .     A
N277   Cu301   1.906   .     S
N277   C441    1.322   .     A
C278   C437    1.410   .     A
N279   C280    1.351   .     S
N279   C282    1.340   .     S
N279   Cu301   1.858   .     S
C280   C287    1.412   .     A
C281   H283    1.060   .     S
C281   C287    1.391   .     A
C282   N284    1.354   .     S
C282   C286    1.498   .     S
N284   Cu300   1.890   .     S
N284   C287    1.343   .     S
F285   C286    1.343   .     S
C286   F289    1.367   .     S
C286   F288    1.340   .     S
N290   C294    1.336   .     A
N290   C295    1.349   .     A
N290   Cu300   1.862   .     S
N291   C294    1.349   .     A
N291   C296    1.337   .     A
N291   H368    1.041   .     S
F292   C293    1.334   .     S
C293   C294    1.523   .     S
C293   F299    1.347   .     S
C293   F457    1.366   .     S
C295   C297    1.396   .     A
C295   C296    1.417   .     A
C297   H298    1.090   .     S
N302   C307    1.400   .     S
N302   Cu333   1.998   .     S
N302   C308    1.343   .     S
F304   C306    1.333   .     S
F305   C306    1.364   .     S
C306   C307    1.493   .     S
C306   F337    1.293   .     S
C307   N442    1.340   .     S
C308   C309    1.431   .     A
C309   N442    1.291   .     S
C309   C443    1.446   .     A
C310   H311    1.067   .     S
C313   C319    1.400   .     A
C313   H315    1.112   .     S
C313   C432    1.406   .     A
C314   N316    1.331   .     S
C314   C318    1.505   .     S
C314   N445    1.344   .     S
N316   Cu334   1.867   .     S
N316   C319    1.326   .     S
F317   C318    1.379   .     S
C318   F321    1.283   .     S
C318   F320    1.324   .     S
C319   C446    1.373   .     A
N322   C326    1.312   .     S
N322   Cu334   1.841   .     S
N322   C327    1.304   .     S
N323   C328    1.343   .     S
N323   Cu335   1.883   .     S
N323   C326    1.339   .     S
F324   C325    1.343   .     S
C325   F332    1.354   .     S
C325   C326    1.495   .     S
C325   F331    1.322   .     S
C327   C328    1.412   .     A
C327   C329    1.385   .     A
C329   H330    1.102   .     S
C346   C347    1.492   .     A
C346   C351    1.449   .     A
C346   H354    1.103   .     S
C347   C348    1.433   .     A
C347   H355    1.089   .     S
C348   C349    1.439   .     A
C348   H356    1.017   .     S
C349   C350    1.460   .     A
C349   H357    1.068   .     S
C350   C351    1.405   .     A
C350   C352    1.407   .     S
C351   H358    1.081   .     S
C352   C353    1.437   .     D
C352   H359    1.049   .     S
C353   H360    1.091   .     S
C353   H361    1.129   .     S
F369   C394    1.341   .     S
C370   H371    1.089   .     S
C370   C383    1.412   .     A
C370   C376    1.387   .     A
C372   C376    1.392   .     A
C372   C385    1.429   .     A
C372   N373    1.324   .     S
N373   C375    1.367   .     S
N373   Cu395   1.893   .     S
N374   C376    1.375   .     S
N374   C375    1.332   .     S
N378   C382    1.333   .     A
N378   C383    1.319   .     A
N378   H404    1.013   .     S
N379   C382    1.340   .     A
N379   C384    1.342   .     A
N379   H403    1.059   .     S
F380   C381    1.377   .     S
C381   C382    1.512   .     S
C381   F406    1.350   .     S
C381   F407    1.361   .     S
C383   C384    1.417   .     A
C384   C385    1.458   .     A
C385   H386    1.110   .     S
N387   C390    1.334   .     A
N387   C391    1.316   .     A
N387   Cu395   1.833   .     S
N388   C390    1.374   .     A
N388   C392    1.358   .     A
N388   H405    1.045   .     S
F389   C394    1.313   .     S
C390   C394    1.478   .     S
C391   C392    1.398   .     A
C392   C401    1.431   .     A
F393   C394    1.333   .     S
C396   C401    1.437   .     A
F397   C399    1.354   .     S
F398   C399    1.332   .     S
C399   C400    1.402   .     S
C399   F461    1.394   .     S
C400   N459    1.352   .     S
C401   H402    1.128   .     S
C409   N410    1.345   .     A
C409   C412    1.429   .     S
N410   H416    1.074   .     S
F411   C412    1.352   .     S
C412   F414    1.380   .     S
C412   F413    1.341   .     S
F417   C422    1.356   .     S
F418   C440    1.353   .     S
F419   C422    1.341   .     S
C420   C435    1.435   .     A
C420   N421    1.330   .     A
N421   C423    1.353   .     A
N421   H449    1.058   .     S
C422   C423    1.474   .     S
F424   C430    1.367   .     S
F425   C430    1.339   .     S
C426   C432    1.403   .     A
C426   C433    1.480   .     A
C426   N427    1.326   .     A
N427   C431    1.344   .     A
N427   H451    1.049   .     S
N428   C432    1.302   .     A
N428   C431    1.366   .     A
F429   C430    1.372   .     S
C430   C431    1.487   .     S
C433   C446    1.421   .     A
C433   H434    1.124   .     S
C435   H436    1.122   .     S
C435   C460    1.440   .     A
C437   N438    1.326   .     A
C437   C443    1.510   .     A
N438   C441    1.334   .     A
N438   H452    1.072   .     S
F439   C440    1.361   .     S
C440   C441    1.438   .     S
N442   H447    1.048   .     S
C443   H444    1.141   .     S
N445   C446    1.352   .     S
N445   H448    1.026   .     S
F453   C456    1.376   .     S
F454   C456    1.374   .     S
F455   C456    1.275   .     S
N459   C460    1.367   .     S
N459   H462    0.998   .     S
C463   C464    1.540   .     A
C463   C468    1.540   .     A
C463   H471    1.140   .     S
C464   C465    1.540   .     A
C464   H472    1.140   .     S
C465   C466    1.540   .     A
C465   H473    1.140   .     S
C466   C467    1.540   .     A
C466   H474    1.140   .     S
C467   C468    1.540   .     A
C467   C469    1.540   .     S
C468   H475    1.140   .     S
C469   C470    1.540   .     D
C469   H476    1.140   .     S
C470   H477    1.140   .     S
C470   H478    1.140   .     S
C479   C480    1.540   .     A
C479   C484    1.540   .     A
C479   H487    1.140   .     S
C480   C481    1.540   .     A
C480   H488    1.140   .     S
C481   C482    1.540   .     A
C481   H489    1.140   .     S
C482   C483    1.540   .     A
C482   H490    1.140   .     S
C483   C484    1.540   .     A
C483   C485    1.540   .     S
C484   H491    1.140   .     S
C485   C486    1.540   .     D
C485   H492    1.140   .     S
C486   H493    1.140   .     S
C486   H494    1.140   .     S
C495   C496    1.540   .     A
C495   C500    1.540   .     A
C495   H503    1.140   .     S
C496   C497    1.540   .     A
C496   H504    1.140   .     S
C497   C498    1.540   .     A
C497   H505    1.140   .     S
C498   C499    1.540   .     A
C498   H506    1.140   .     S
C499   C500    1.540   .     A
C499   C501    1.540   .     S
C500   H507    1.140   .     S
C501   C502    1.540   .     D
C501   H508    1.140   .     S
C502   H509    1.140   .     S
C502   H510    1.140   .     S
C511   C512    1.540   .     A
C511   C516    1.540   .     A
C511   H519    1.140   .     S
C512   C513    1.540   .     A
C512   H520    1.140   .     S
C513   C514    1.540   .     A
C513   H521    1.140   .     S
C514   C515    1.540   .     A
C514   H522    1.140   .     S
C515   C516    1.540   .     A
C515   C517    1.540   .     S
C516   H523    1.140   .     S
C517   C518    1.540   .     D
C517   H524    1.140   .     S
C518   H525    1.140   .     S
C518   H526    1.140   .     S
C527   C528    1.540   .     A
C527   C532    1.540   .     A
C527   H535    1.140   .     S
C528   C529    1.540   .     A
C528   H536    1.140   .     S
C529   C530    1.540   .     A
C529   H537    1.140   .     S
C530   C531    1.540   .     A
C530   H538    1.140   .     S
C531   C532    1.540   .     A
C531   C533    1.540   .     S
C532   H539    1.140   .     S
C533   C534    1.540   .     D
C533   H540    1.140   .     S
C534   H541    1.140   .     S
C534   H542    1.140   .     S
C543   C544    1.540   .     A
C543   C548    1.540   .     A
C543   H551    1.140   .     S
C544   C545    1.540   .     A
C544   H552    1.140   .     S
C545   C546    1.540   .     A
C545   H553    1.140   .     S
C546   C547    1.540   .     A
C546   H554    1.140   .     S
C547   C548    1.540   .     A
C547   C549    1.540   .     S
C548   H555    1.140   .     S
C549   C550    1.541   .     D
C549   H556    1.140   .     S
C550   H557    1.140   .     S
C550   H558    1.140   .     S
C559   C560    1.540   .     A
C559   C564    1.540   .     A
C559   H567    1.140   .     S
C560   C561    1.540   .     A
C560   H568    1.140   .     S
C561   C562    1.540   .     A
C561   H569    1.140   .     S
C562   C563    1.540   .     A
C562   H570    1.140   .     S
C563   C564    1.540   .     A
C563   C565    1.540   .     S
C564   H571    1.140   .     S
C565   C566    1.540   .     D
C565   H572    1.140   .     S
C566   H573    1.140   .     S
C566   H574    1.140   .     S
C575   C576    1.540   .     A
C575   C580    1.540   .     A
C575   H583    1.140   .     S
C576   C577    1.540   .     A
C576   H584    1.140   .     S
C577   C578    1.540   .     A
C577   H585    1.140   .     S
C578   C579    1.540   .     A
C578   H586    1.140   .     S
C579   C580    1.540   .     A
C579   C581    1.540   .     S
C580   H587    1.140   .     S
C581   C582    1.540   .     D
C581   H588    1.140   .     S
C582   H589    1.140   .     S
C582   H590    1.140   .     S
C591   C592    1.540   .     A
C591   C596    1.540   .     A
C591   H599    1.140   .     S
C592   C593    1.540   .     A
C592   H600    1.140   .     S
C593   C594    1.540   .     A
C593   H601    1.140   .     S
C594   C595    1.540   .     A
C594   H602    1.140   .     S
C595   C596    1.540   .     A
C595   C597    1.540   .     S
C596   H603    1.140   .     S
C597   C598    1.540   .     D
C597   H604    1.140   .     S
C598   H605    1.140   .     S
C598   H606    1.140   .     S
C607   C608    1.540   .     A
C607   C612    1.540   .     A
C607   H615    1.140   .     S
C608   C609    1.540   .     A
C608   H616    1.140   .     S
C609   C610    1.540   .     A
C609   H617    1.140   .     S
C610   C611    1.540   .     A
C610   H618    1.140   .     S
C611   C612    1.540   .     A
C611   C613    1.540   .     S
C612   H619    1.140   .     S
C613   C614    1.540   .     D
C613   H620    1.140   .     S
C614   H621    1.140   .     S
C614   H622    1.140   .     S
C623   C624    1.540   .     A
C623   C628    1.540   .     A
C623   H629    1.140   .     S
C624   C625    1.540   .     A
C624   H630    1.140   .     S
C625   C626    1.540   .     A
C625   H631    1.140   .     S
C626   C627    1.540   .     A
C626   H632    1.140   .     S
C627   C628    1.540   .     A
C627   H634    1.140   .     S
C628   H633    1.140   .     S
C635   C636    1.540   .     A
C635   C640    1.540   .     A
C635   H641    1.140   .     S
C636   C637    1.540   .     A
C636   H642    1.140   .     S
C637   C638    1.540   .     A
C637   H643    1.140   .     S
C638   C639    1.540   .     A
C638   H644    1.140   .     S
C639   C640    1.540   .     A
C639   H646    1.140   .     S
C640   H645    1.140   .     S
C647   C648    1.540   .     A
C647   C652    1.540   .     A
C647   H653    1.140   .     S
C648   C649    1.540   .     A
C648   H654    1.140   .     S
C649   C650    1.540   .     A
C649   H655    1.140   .     S
C650   C651    1.540   .     A
C650   H656    1.140   .     S
C651   C652    1.540   .     A
C651   H658    1.140   .     S
C652   H657    1.140   .     S
C659   C660    1.540   .     A
C659   C664    1.540   .     A
C659   H665    1.140   .     S
C660   C661    1.540   .     A
C660   H666    1.140   .     S
C661   C662    1.540   .     A
C661   H667    1.140   .     S
C662   C663    1.540   .     A
C662   H668    1.140   .     S
C663   C664    1.540   .     A
C663   H670    1.140   .     S
C664   H669    1.140   .     S
C671   C672    1.540   .     A
C671   C676    1.540   .     A
C671   H677    1.140   .     S
C672   C673    1.540   .     A
C672   H678    1.140   .     S
C673   C674    1.540   .     A
C673   H679    1.140   .     S
C674   C675    1.540   .     A
C674   H680    1.140   .     S
C675   C676    1.540   .     A
C675   H682    1.140   .     S
C676   H681    1.140   .     S
C683   C684    1.540   .     A
C683   C688    1.540   .     A
C683   H689    1.140   .     S
C684   C685    1.540   .     A
C684   H690    1.140   .     S
C685   C686    1.540   .     A
C685   H691    1.140   .     S
C686   C687    1.540   .     A
C686   H692    1.140   .     S
C687   C688    1.540   .     A
C687   H694    1.140   .     S
C688   H693    1.140   .     S
C695   C696    1.540   .     A
C695   C700    1.540   .     A
C695   H701    1.140   .     S
C696   C697    1.540   .     A
C696   H702    1.140   .     S
C697   C698    1.540   .     A
C697   H703    1.140   .     S
C698   C699    1.540   .     A
C698   H704    1.140   .     S
C699   C700    1.540   .     A
C699   H706    1.140   .     S
C700   H705    1.140   .     S
C707   C708    1.540   .     A
C707   C712    1.540   .     A
C707   H713    1.140   .     S
C708   C709    1.540   .     A
C708   H714    1.140   .     S
C709   C710    1.540   .     A
C709   H715    1.140   .     S
C710   C711    1.540   .     A
C710   H716    1.140   .     S
C711   C712    1.540   .     A
C711   H718    1.140   .     S
C712   H717    1.140   .     S
C719   C720    1.540   .     A
C719   C724    1.540   .     A
C719   H725    1.140   .     S
C720   C721    1.540   .     A
C720   H726    1.140   .     S
C721   C722    1.540   .     A
C721   H727    1.140   .     S
C722   C723    1.540   .     A
C722   H728    1.140   .     S
C723   C724    1.540   .     A
C723   C730    1.540   .     S
C724   H729    1.140   .     S
C730   H731    1.140   .     S
C730   H732    1.140   .     S
C730   H733    1.140   .     S
C734   C735    1.540   .     A
C734   C739    1.540   .     A
C734   H740    1.140   .     S
C735   C736    1.540   .     A
C735   H741    1.140   .     S
C736   C737    1.540   .     A
C736   H742    1.140   .     S
C737   C738    1.540   .     A
C737   H743    1.140   .     S
C738   C739    1.540   .     A
C738   C745    1.540   .     S
C739   H744    1.140   .     S
C745   H746    1.140   .     S
C745   H747    1.140   .     S
C745   H748    1.140   .     S
C749   C750    1.540   .     A
C749   C754    1.540   .     A
C749   H755    1.140   .     S
C750   C751    1.540   .     A
C750   H756    1.140   .     S
C751   C752    1.540   .     A
C751   H757    1.140   .     S
C752   C753    1.540   .     A
C752   H758    1.140   .     S
C753   C754    1.540   .     A
C753   C760    1.540   .     S
C754   H759    1.140   .     S
C760   H761    1.140   .     S
C760   H762    1.140   .     S
C760   H763    1.140   .     S
C764   C765    1.540   .     A
C764   C769    1.540   .     A
C764   H770    1.140   .     S
C765   C766    1.540   .     A
C765   H771    1.140   .     S
C766   C767    1.540   .     A
C766   H772    1.140   .     S
C767   C768    1.540   .     A
C767   H773    1.140   .     S
C768   C769    1.540   .     A
C768   C775    1.540   .     S
C769   H774    1.140   .     S
C775   H776    1.140   .     S
C775   H777    1.140   .     S
C775   H778    1.140   .     S
C779   C780    1.540   .     A
C779   C784    1.540   .     A
C779   H785    1.140   .     S
C780   C781    1.540   .     A
C780   H786    1.140   .     S
C781   C782    1.540   .     A
C781   H787    1.140   .     S
C782   C783    1.540   .     A
C782   H788    1.140   .     S
C783   C784    1.540   .     A
C783   C790    1.540   .     S
C784   H789    1.140   .     S
C790   H791    1.140   .     S
C790   H792    1.140   .     S
C790   H793    1.140   .     S
C794   C795    1.540   .     A
C794   C799    1.540   .     A
C794   H800    1.140   .     S
C795   C796    1.540   .     A
C795   H801    1.140   .     S
C796   C797    1.540   .     A
C796   H802    1.140   .     S
C797   C798    1.540   .     A
C797   H803    1.140   .     S
C798   C799    1.540   .     A
C798   C805    1.540   .     S
C799   H804    1.140   .     S
C805   H806    1.140   .     S
C805   H807    1.140   .     S
C805   H808    1.140   .     S
C809   C810    1.540   .     A
C809   C814    1.540   .     A
C809   H815    1.140   .     S
C810   C811    1.540   .     A
C810   H816    1.140   .     S
C811   C812    1.540   .     A
C811   H817    1.140   .     S
C812   C813    1.540   .     A
C812   H818    1.140   .     S
C813   C814    1.540   .     A
C813   C820    1.540   .     S
C814   H819    1.140   .     S
C820   H821    1.140   .     S
C820   H822    1.140   .     S
C820   H823    1.140   .     S
C824   C825    1.540   .     A
C824   C829    1.540   .     A
C824   H830    1.140   .     S
C825   C826    1.540   .     A
C825   H831    1.140   .     S
C826   C827    1.540   .     A
C826   H832    1.140   .     S
C827   C828    1.540   .     A
C827   H833    1.140   .     S
C828   C829    1.540   .     A
C828   C835    1.540   .     S
C829   H834    1.140   .     S
C835   H836    1.140   .     S
C835   H837    1.140   .     S
C835   H838    1.140   .     S
C839   C840    1.540   .     A
C839   C844    1.540   .     A
C839   H845    1.140   .     S
C840   C841    1.540   .     A
C840   H846    1.140   .     S
C841   C842    1.540   .     A
C841   H847    1.140   .     S
C842   C843    1.540   .     A
C842   H848    1.140   .     S
C843   C844    1.540   .     A
C843   C850    1.540   .     S
C844   H849    1.140   .     S
C850   H851    1.140   .     S
C850   H852    1.140   .     S
C850   H853    1.140   .     S
C854   C855    1.540   .     A
C854   C859    1.540   .     A
C854   H860    1.140   .     S
C855   C856    1.540   .     A
C855   H861    1.140   .     S
C856   C857    1.540   .     A
C856   H862    1.140   .     S
C857   C858    1.540   .     A
C857   H863    1.140   .     S
C858   C859    1.540   .     A
C858   C865    1.540   .     S
C859   H864    1.140   .     S
C865   H866    1.140   .     S
C865   H867    1.140   .     S
C865   H868    1.140   .     S
C869   C870    1.540   .     A
C869   C874    1.540   .     A
C869   H875    1.140   .     S
C870   C871    1.540   .     A
C870   H876    1.140   .     S
C871   C872    1.540   .     A
C871   H877    1.140   .     S
C872   C873    1.540   .     A
C872   H878    1.140   .     S
C873   C874    1.540   .     A
C873   C880    1.539   .     S
C874   H879    1.140   .     S
C880   C881    1.540   .     S
C880   H882    1.140   .     S
C880   H883    1.140   .     S
C881   H884    1.140   .     S
C881   H885    1.140   .     S
C881   H886    1.140   .     S
C887   C888    1.540   .     A
C887   C892    1.540   .     A
C887   H893    1.140   .     S
C888   C889    1.540   .     A
C888   H894    1.140   .     S
C889   C890    1.540   .     A
C889   H895    1.140   .     S
C890   C891    1.540   .     A
C890   H896    1.140   .     S
C891   C892    1.540   .     A
C891   C898    1.539   .     S
C892   H897    1.140   .     S
C898   C899    1.540   .     S
C898   H900    1.140   .     S
C898   H901    1.140   .     S
C899   H902    1.140   .     S
C899   H903    1.140   .     S
C899   H904    1.140   .     S
C905   C906    1.540   .     A
C905   C910    1.540   .     A
C905   H911    1.140   .     S
C906   C907    1.540   .     A
C906   H912    1.140   .     S
C907   C908    1.540   .     A
C907   H913    1.140   .     S
C908   C909    1.540   .     A
C908   H914    1.140   .     S
C909   C910    1.540   .     A
C909   C916    1.539   .     S
C910   H915    1.140   .     S
C916   C917    1.540   .     S
C916   H918    1.140   .     S
C916   H919    1.140   .     S
C917   H920    1.140   .     S
C917   H921    1.140   .     S
C917   H922    1.140   .     S
C923   C924    1.540   .     A
C923   C928    1.540   .     A
C923   H929    1.140   .     S
C924   C925    1.540   .     A
C924   H930    1.140   .     S
C925   C926    1.540   .     A
C925   H931    1.140   .     S
C926   C927    1.540   .     A
C926   H932    1.140   .     S
C927   C928    1.540   .     A
C927   C934    1.539   .     S
C928   H933    1.140   .     S
C934   C935    1.540   .     S
C934   H936    1.140   .     S
C934   H937    1.140   .     S
C935   H938    1.140   .     S
C935   H939    1.140   .     S
C935   H940    1.140   .     S
C941   C942    1.540   .     A
C941   C946    1.540   .     A
C941   H947    1.140   .     S
C942   C943    1.540   .     A
C942   H948    1.140   .     S
C943   C944    1.540   .     A
C943   H949    1.140   .     S
C944   C945    1.540   .     A
C944   H950    1.140   .     S
C945   C946    1.540   .     A
C945   C952    1.539   .     S
C946   H951    1.140   .     S
C952   C953    1.540   .     S
C952   H954    1.140   .     S
C952   H955    1.140   .     S
C953   H956    1.140   .     S
C957   C958    1.540   .     A
C957   C962    1.540   .     A
C957   H963    1.140   .     S
C958   C959    1.540   .     A
C958   H964    1.140   .     S
C959   C960    1.540   .     A
C959   H965    1.140   .     S
C960   C961    1.540   .     A
C960   H966    1.140   .     S
C961   C962    1.540   .     A
C961   C968    1.539   .     S
C962   H967    1.140   .     S
C968   C969    1.540   .     S
C968   H970    1.140   .     S
C968   H971    1.140   .     S
C969   H972    1.140   .     S
C969   H973    1.140   .     S
C969   H974    1.140   .     S
C975   C976    1.540   .     A
C975   C980    1.540   .     A
C975   H981    1.140   .     S
C976   C977    1.540   .     A
C976   H982    1.140   .     S
C977   C978    1.540   .     A
C977   H983    1.140   .     S
C978   C979    1.540   .     A
C978   H984    1.140   .     S
C979   C980    1.540   .     A
C979   C986    1.539   .     S
C980   H985    1.140   .     S
C986   C987    1.540   .     S
C986   H988    1.140   .     S
C986   H989    1.140   .     S
C987   H990    1.140   .     S
C987   H991    1.140   .     S
C987   H992    1.140   .     S
C993   C994    1.540   .     A
C993   C998    1.540   .     A
C993   H999    1.140   .     S
C994   C995    1.540   .     A
C994   H1000   1.140   .     S
C995   C996    1.540   .     A
C995   H1001   1.140   .     S
C996   C997    1.540   .     A
C996   H1002   1.140   .     S
C997   C998    1.540   .     A
C997   C1004   1.539   .     S
C998   H1003   1.140   .     S
C1004  C1005   1.540   .     S
C1004  H1006   1.140   .     S
C1004  H1007   1.140   .     S
C1005  H1008   1.140   .     S
C1005  H1009   1.140   .     S
C1005  H1010   1.140   .     S
C1011  C1012   1.540   .     A
C1011  C1016   1.540   .     A
C1011  H1017   1.140   .     S
C1012  C1013   1.540   .     A
C1012  H1018   1.140   .     S
C1013  C1014   1.540   .     A
C1013  H1019   1.140   .     S
C1014  C1015   1.540   .     A
C1014  H1020   1.140   .     S
C1015  C1016   1.540   .     A
C1015  C1022   1.539   .     S
C1016  H1021   1.140   .     S
C1022  C1023   1.540   .     S
C1022  H1024   1.140   .     S
C1022  H1025   1.140   .     S
C1023  H1026   1.140   .     S
C1023  H1027   1.140   .     S
C1023  H1028   1.140   .     S
C1029  C1030   1.540   .     A
C1029  C1034   1.540   .     A
C1029  H1035   1.140   .     S
C1030  C1031   1.540   .     A
C1030  H1036   1.140   .     S
C1031  C1032   1.540   .     A
C1031  H1037   1.140   .     S
C1032  C1033   1.540   .     A
C1032  H1038   1.140   .     S
C1033  C1034   1.540   .     A
C1033  C1040   1.539   .     S
C1034  H1039   1.140   .     S
C1040  C1041   1.540   .     S
C1040  H1042   1.140   .     S
C1040  H1043   1.140   .     S
C1041  H1044   1.140   .     S
C1041  H1045   1.140   .     S
C1041  H1046   1.140   .     S
C1047  C1048   1.540   .     A
C1047  C1052   1.540   .     A
C1047  H1053   1.140   .     S
C1048  C1049   1.540   .     A
C1048  H1054   1.140   .     S
C1049  C1050   1.540   .     A
C1049  H1055   1.140   .     S
C1050  C1051   1.540   .     A
C1050  H1056   1.140   .     S
C1051  C1052   1.540   .     A
C1051  H1058   1.140   .     S
C1052  H1057   1.140   .     S
C1059  C1060   1.540   .     A
C1059  C1064   1.540   .     A
C1059  H1065   1.140   .     S
C1060  C1061   1.540   .     A
C1060  H1066   1.140   .     S
C1061  C1062   1.540   .     A
C1061  H1067   1.140   .     S
C1062  C1063   1.540   .     A
C1062  H1068   1.140   .     S
C1063  C1064   1.540   .     A
C1063  H1070   1.140   .     S
C1064  H1069   1.140   .     S
